
#######################################################################
#
#                 Cambridge Crystallographic Data Centre
#                                CCDC 
#
#######################################################################
#
# If this CIF has been generated from an entry in the Cambridge 
# Structural Database, then it will include bibliographic, chemical, 
# crystal, experimental, refinement or atomic coordinate data resulting 
# from the CCDC's data processing and validation procedures.
#
#######################################################################

data_SIFIX-3-Cu_Mohamed_EDDAOUDI_KAUST
_symmetry_cell_setting           tetragonal
_symmetry_space_group_name_H-M   'P 4/m m m'
_symmetry_Int_Tables_number      123
_space_group_name_Hall           '-P 4 2'
loop_
_symmetry_equiv_pos_site_id
_symmetry_equiv_pos_as_xyz
1 x,y,z
2 -y,x,z
3 -x,-y,z
4 y,-x,z
5 -x,y,z
6 y,x,z
7 x,-y,z
8 -y,-x,z
9 -x,-y,-z
10 y,-x,-z
11 x,y,-z
12 -y,x,-z
13 x,-y,-z
14 -y,-x,-z
15 -x,y,-z
16 y,x,-z
_cell_length_a                   6.9186(2)
_cell_length_b                   6.9186(2)
_cell_length_c                   7.9061(3)
_cell_angle_alpha                90.00000
_cell_angle_beta                 90.00000
_cell_angle_gamma                90.00000
_cell_volume                     378.441
loop_
_atom_site_label
_atom_site_type_symbol
_atom_site_fract_x
_atom_site_fract_y
_atom_site_fract_z
_atom_site_U_iso_or_equiv
_atom_site_thermal_displace_type
N1 N 0.50000 0.217(2) 0.50000 0.0990 Uiso
C1 C 0.50000 0.0893(1) 0.3843(1) 0.1210 Uiso
H1 H 0.50000 0.14010 0.27980 0.1665 Uiso
Cu1 Cu 0.50000 0.50000 0.50000 0.0980 Uiso
F1 F 0.50000 0.50000 0.232(3) 0.1190 Uiso
F2 F 0.3313(15) 0.3313(15) 0.00000 0.2040 Uiso
Si1 Si 0.50000 0.50000 0.00000 0.1580 Uiso
N1 N 0.50000 -0.217(2) 0.50000 0.0990 Uiso
C1 C 0.50000 -0.0893(1) 0.3843(1) 0.1210 Uiso
H1 H 0.50000 -0.14010 0.27980 0.1665 Uiso
C1 C 0.50000 -0.0893(1) 0.6157(1) 0.1210 Uiso
H1 H 0.50000 -0.14010 0.72020 0.1665 Uiso
C1 C 0.50000 0.0893(1) 0.6157(1) 0.1210 Uiso
H1 H 0.50000 0.14010 0.72020 0.1665 Uiso
F2 F 0.6687(15) 0.3313(15) 0.00000 0.2040 Uiso
F2 F 0.6687(15) 0.6687(15) 0.00000 0.2040 Uiso
F2 F 0.3313(15) 0.6687(15) 0.00000 0.2040 Uiso
F1 F 0.50000 0.50000 -0.232(3) 0.1190 Uiso
N1 N -0.217(2) 0.50000 0.50000 0.0990 Uiso
C1 C -0.0893(1) 0.50000 0.3843(1) 0.1210 Uiso
H1 H -0.14010 0.50000 0.27980 0.1665 Uiso
N1 N 0.217(2) 0.50000 0.50000 0.0990 Uiso
C1 C 0.0893(1) 0.50000 0.3843(1) 0.1210 Uiso
H1 H 0.14010 0.50000 0.27980 0.1665 Uiso
C1 C 0.0893(1) 0.50000 0.6157(1) 0.1210 Uiso
H1 H 0.14010 0.50000 0.72020 0.1665 Uiso
C1 C -0.0893(1) 0.50000 0.6157(1) 0.1210 Uiso
H1 H -0.14010 0.50000 0.72020 0.1665 Uiso
N1 N 0.783(2) 0.50000 0.50000 0.0990 Uiso
N1 N 0.50000 0.783(2) 0.50000 0.0990 Uiso
Cu1 Cu -0.50000 0.50000 0.50000 0.0980 Uiso
Cu1 Cu 0.50000 -0.50000 0.50000 0.0980 Uiso
Cu1 Cu 0.50000 0.50000 -0.50000 0.0980 Uiso
F1 F 0.50000 0.50000 0.768(3) 0.1190 Uiso
N1 N 0.50000 0.217(2) 1.50000 0.0990 Uiso
C1 C 0.50000 0.0893(1) 1.3843(1) 0.1210 Uiso
H1 H 0.50000 0.14010 1.27980 0.1665 Uiso
Cu1 Cu 0.50000 0.50000 1.50000 0.0980 Uiso
F1 F 0.50000 0.50000 1.232(3) 0.1190 Uiso
F2 F 0.3313(15) 0.3313(15) 1.00000 0.2040 Uiso
Si1 Si 0.50000 0.50000 1.00000 0.1580 Uiso
N1 N 0.50000 -0.217(2) 1.50000 0.0990 Uiso
C1 C 0.50000 -0.0893(1) 1.3843(1) 0.1210 Uiso
H1 H 0.50000 -0.14010 1.27980 0.1665 Uiso
C1 C 0.50000 -0.0893(1) 1.6157(1) 0.1210 Uiso
H1 H 0.50000 -0.14010 1.72020 0.1665 Uiso
C1 C 0.50000 0.0893(1) 1.6157(1) 0.1210 Uiso
H1 H 0.50000 0.14010 1.72020 0.1665 Uiso
F2 F 0.6687(15) 0.3313(15) 1.00000 0.2040 Uiso
F2 F 0.6687(15) 0.6687(15) 1.00000 0.2040 Uiso
F2 F 0.3313(15) 0.6687(15) 1.00000 0.2040 Uiso
N1 N -0.217(2) 0.50000 1.50000 0.0990 Uiso
C1 C -0.0893(1) 0.50000 1.3843(1) 0.1210 Uiso
H1 H -0.14010 0.50000 1.27980 0.1665 Uiso
N1 N 0.217(2) 0.50000 1.50000 0.0990 Uiso
C1 C 0.0893(1) 0.50000 1.3843(1) 0.1210 Uiso
H1 H 0.14010 0.50000 1.27980 0.1665 Uiso
C1 C 0.0893(1) 0.50000 1.6157(1) 0.1210 Uiso
H1 H 0.14010 0.50000 1.72020 0.1665 Uiso
C1 C -0.0893(1) 0.50000 1.6157(1) 0.1210 Uiso
H1 H -0.14010 0.50000 1.72020 0.1665 Uiso
N1 N 0.783(2) 0.50000 1.50000 0.0990 Uiso
N1 N 0.50000 0.783(2) 1.50000 0.0990 Uiso
Cu1 Cu -0.50000 0.50000 1.50000 0.0980 Uiso
Cu1 Cu 0.50000 -0.50000 1.50000 0.0980 Uiso
F1 F 0.50000 0.50000 1.768(3) 0.1190 Uiso
N1 N 0.50000 1.217(2) 0.50000 0.0990 Uiso
C1 C 0.50000 1.0893(1) 0.3843(1) 0.1210 Uiso
H1 H 0.50000 1.14010 0.27980 0.1665 Uiso
Cu1 Cu 0.50000 1.50000 0.50000 0.0980 Uiso
F1 F 0.50000 1.50000 0.232(3) 0.1190 Uiso
F2 F 0.3313(15) 1.3313(15) 0.00000 0.2040 Uiso
Si1 Si 0.50000 1.50000 0.00000 0.1580 Uiso
C1 C 0.50000 0.9107(1) 0.3843(1) 0.1210 Uiso
H1 H 0.50000 0.85990 0.27980 0.1665 Uiso
C1 C 0.50000 0.9107(1) 0.6157(1) 0.1210 Uiso
H1 H 0.50000 0.85990 0.72020 0.1665 Uiso
C1 C 0.50000 1.0893(1) 0.6157(1) 0.1210 Uiso
H1 H 0.50000 1.14010 0.72020 0.1665 Uiso
F2 F 0.6687(15) 1.3313(15) 0.00000 0.2040 Uiso
F2 F 0.6687(15) 1.6687(15) 0.00000 0.2040 Uiso
F2 F 0.3313(15) 1.6687(15) 0.00000 0.2040 Uiso
F1 F 0.50000 1.50000 -0.232(3) 0.1190 Uiso
N1 N -0.217(2) 1.50000 0.50000 0.0990 Uiso
C1 C -0.0893(1) 1.50000 0.3843(1) 0.1210 Uiso
H1 H -0.14010 1.50000 0.27980 0.1665 Uiso
N1 N 0.217(2) 1.50000 0.50000 0.0990 Uiso
C1 C 0.0893(1) 1.50000 0.3843(1) 0.1210 Uiso
H1 H 0.14010 1.50000 0.27980 0.1665 Uiso
C1 C 0.0893(1) 1.50000 0.6157(1) 0.1210 Uiso
H1 H 0.14010 1.50000 0.72020 0.1665 Uiso
C1 C -0.0893(1) 1.50000 0.6157(1) 0.1210 Uiso
H1 H -0.14010 1.50000 0.72020 0.1665 Uiso
N1 N 0.783(2) 1.50000 0.50000 0.0990 Uiso
N1 N 0.50000 1.783(2) 0.50000 0.0990 Uiso
Cu1 Cu -0.50000 1.50000 0.50000 0.0980 Uiso
Cu1 Cu 0.50000 1.50000 -0.50000 0.0980 Uiso
F1 F 0.50000 1.50000 0.768(3) 0.1190 Uiso
N1 N 0.50000 1.217(2) 1.50000 0.0990 Uiso
C1 C 0.50000 1.0893(1) 1.3843(1) 0.1210 Uiso
H1 H 0.50000 1.14010 1.27980 0.1665 Uiso
Cu1 Cu 0.50000 1.50000 1.50000 0.0980 Uiso
F1 F 0.50000 1.50000 1.232(3) 0.1190 Uiso
F2 F 0.3313(15) 1.3313(15) 1.00000 0.2040 Uiso
Si1 Si 0.50000 1.50000 1.00000 0.1580 Uiso
C1 C 0.50000 0.9107(1) 1.3843(1) 0.1210 Uiso
H1 H 0.50000 0.85990 1.27980 0.1665 Uiso
C1 C 0.50000 0.9107(1) 1.6157(1) 0.1210 Uiso
H1 H 0.50000 0.85990 1.72020 0.1665 Uiso
C1 C 0.50000 1.0893(1) 1.6157(1) 0.1210 Uiso
H1 H 0.50000 1.14010 1.72020 0.1665 Uiso
F2 F 0.6687(15) 1.3313(15) 1.00000 0.2040 Uiso
F2 F 0.6687(15) 1.6687(15) 1.00000 0.2040 Uiso
F2 F 0.3313(15) 1.6687(15) 1.00000 0.2040 Uiso
N1 N -0.217(2) 1.50000 1.50000 0.0990 Uiso
C1 C -0.0893(1) 1.50000 1.3843(1) 0.1210 Uiso
H1 H -0.14010 1.50000 1.27980 0.1665 Uiso
N1 N 0.217(2) 1.50000 1.50000 0.0990 Uiso
C1 C 0.0893(1) 1.50000 1.3843(1) 0.1210 Uiso
H1 H 0.14010 1.50000 1.27980 0.1665 Uiso
C1 C 0.0893(1) 1.50000 1.6157(1) 0.1210 Uiso
H1 H 0.14010 1.50000 1.72020 0.1665 Uiso
C1 C -0.0893(1) 1.50000 1.6157(1) 0.1210 Uiso
H1 H -0.14010 1.50000 1.72020 0.1665 Uiso
N1 N 0.783(2) 1.50000 1.50000 0.0990 Uiso
N1 N 0.50000 1.783(2) 1.50000 0.0990 Uiso
Cu1 Cu -0.50000 1.50000 1.50000 0.0980 Uiso
F1 F 0.50000 1.50000 1.768(3) 0.1190 Uiso
N1 N 1.50000 0.217(2) 0.50000 0.0990 Uiso
C1 C 1.50000 0.0893(1) 0.3843(1) 0.1210 Uiso
H1 H 1.50000 0.14010 0.27980 0.1665 Uiso
Cu1 Cu 1.50000 0.50000 0.50000 0.0980 Uiso
F1 F 1.50000 0.50000 0.232(3) 0.1190 Uiso
F2 F 1.3313(15) 0.3313(15) 0.00000 0.2040 Uiso
Si1 Si 1.50000 0.50000 0.00000 0.1580 Uiso
N1 N 1.50000 -0.217(2) 0.50000 0.0990 Uiso
C1 C 1.50000 -0.0893(1) 0.3843(1) 0.1210 Uiso
H1 H 1.50000 -0.14010 0.27980 0.1665 Uiso
C1 C 1.50000 -0.0893(1) 0.6157(1) 0.1210 Uiso
H1 H 1.50000 -0.14010 0.72020 0.1665 Uiso
C1 C 1.50000 0.0893(1) 0.6157(1) 0.1210 Uiso
H1 H 1.50000 0.14010 0.72020 0.1665 Uiso
F2 F 1.6687(15) 0.3313(15) 0.00000 0.2040 Uiso
F2 F 1.6687(15) 0.6687(15) 0.00000 0.2040 Uiso
F2 F 1.3313(15) 0.6687(15) 0.00000 0.2040 Uiso
F1 F 1.50000 0.50000 -0.232(3) 0.1190 Uiso
C1 C 0.9107(1) 0.50000 0.3843(1) 0.1210 Uiso
H1 H 0.85990 0.50000 0.27980 0.1665 Uiso
N1 N 1.217(2) 0.50000 0.50000 0.0990 Uiso
C1 C 1.0893(1) 0.50000 0.3843(1) 0.1210 Uiso
H1 H 1.14010 0.50000 0.27980 0.1665 Uiso
C1 C 1.0893(1) 0.50000 0.6157(1) 0.1210 Uiso
H1 H 1.14010 0.50000 0.72020 0.1665 Uiso
C1 C 0.9107(1) 0.50000 0.6157(1) 0.1210 Uiso
H1 H 0.85990 0.50000 0.72020 0.1665 Uiso
N1 N 1.783(2) 0.50000 0.50000 0.0990 Uiso
N1 N 1.50000 0.783(2) 0.50000 0.0990 Uiso
Cu1 Cu 1.50000 -0.50000 0.50000 0.0980 Uiso
Cu1 Cu 1.50000 0.50000 -0.50000 0.0980 Uiso
F1 F 1.50000 0.50000 0.768(3) 0.1190 Uiso
N1 N 1.50000 0.217(2) 1.50000 0.0990 Uiso
C1 C 1.50000 0.0893(1) 1.3843(1) 0.1210 Uiso
H1 H 1.50000 0.14010 1.27980 0.1665 Uiso
Cu1 Cu 1.50000 0.50000 1.50000 0.0980 Uiso
F1 F 1.50000 0.50000 1.232(3) 0.1190 Uiso
F2 F 1.3313(15) 0.3313(15) 1.00000 0.2040 Uiso
Si1 Si 1.50000 0.50000 1.00000 0.1580 Uiso
N1 N 1.50000 -0.217(2) 1.50000 0.0990 Uiso
C1 C 1.50000 -0.0893(1) 1.3843(1) 0.1210 Uiso
H1 H 1.50000 -0.14010 1.27980 0.1665 Uiso
C1 C 1.50000 -0.0893(1) 1.6157(1) 0.1210 Uiso
H1 H 1.50000 -0.14010 1.72020 0.1665 Uiso
C1 C 1.50000 0.0893(1) 1.6157(1) 0.1210 Uiso
H1 H 1.50000 0.14010 1.72020 0.1665 Uiso
F2 F 1.6687(15) 0.3313(15) 1.00000 0.2040 Uiso
F2 F 1.6687(15) 0.6687(15) 1.00000 0.2040 Uiso
F2 F 1.3313(15) 0.6687(15) 1.00000 0.2040 Uiso
C1 C 0.9107(1) 0.50000 1.3843(1) 0.1210 Uiso
H1 H 0.85990 0.50000 1.27980 0.1665 Uiso
N1 N 1.217(2) 0.50000 1.50000 0.0990 Uiso
C1 C 1.0893(1) 0.50000 1.3843(1) 0.1210 Uiso
H1 H 1.14010 0.50000 1.27980 0.1665 Uiso
C1 C 1.0893(1) 0.50000 1.6157(1) 0.1210 Uiso
H1 H 1.14010 0.50000 1.72020 0.1665 Uiso
C1 C 0.9107(1) 0.50000 1.6157(1) 0.1210 Uiso
H1 H 0.85990 0.50000 1.72020 0.1665 Uiso
N1 N 1.783(2) 0.50000 1.50000 0.0990 Uiso
N1 N 1.50000 0.783(2) 1.50000 0.0990 Uiso
Cu1 Cu 1.50000 -0.50000 1.50000 0.0980 Uiso
F1 F 1.50000 0.50000 1.768(3) 0.1190 Uiso
N1 N 1.50000 1.217(2) 0.50000 0.0990 Uiso
C1 C 1.50000 1.0893(1) 0.3843(1) 0.1210 Uiso
H1 H 1.50000 1.14010 0.27980 0.1665 Uiso
Cu1 Cu 1.50000 1.50000 0.50000 0.0980 Uiso
F1 F 1.50000 1.50000 0.232(3) 0.1190 Uiso
F2 F 1.3313(15) 1.3313(15) 0.00000 0.2040 Uiso
Si1 Si 1.50000 1.50000 0.00000 0.1580 Uiso
C1 C 1.50000 0.9107(1) 0.3843(1) 0.1210 Uiso
H1 H 1.50000 0.85990 0.27980 0.1665 Uiso
C1 C 1.50000 0.9107(1) 0.6157(1) 0.1210 Uiso
H1 H 1.50000 0.85990 0.72020 0.1665 Uiso
C1 C 1.50000 1.0893(1) 0.6157(1) 0.1210 Uiso
H1 H 1.50000 1.14010 0.72020 0.1665 Uiso
F2 F 1.6687(15) 1.3313(15) 0.00000 0.2040 Uiso
F2 F 1.6687(15) 1.6687(15) 0.00000 0.2040 Uiso
F2 F 1.3313(15) 1.6687(15) 0.00000 0.2040 Uiso
F1 F 1.50000 1.50000 -0.232(3) 0.1190 Uiso
C1 C 0.9107(1) 1.50000 0.3843(1) 0.1210 Uiso
H1 H 0.85990 1.50000 0.27980 0.1665 Uiso
N1 N 1.217(2) 1.50000 0.50000 0.0990 Uiso
C1 C 1.0893(1) 1.50000 0.3843(1) 0.1210 Uiso
H1 H 1.14010 1.50000 0.27980 0.1665 Uiso
C1 C 1.0893(1) 1.50000 0.6157(1) 0.1210 Uiso
H1 H 1.14010 1.50000 0.72020 0.1665 Uiso
C1 C 0.9107(1) 1.50000 0.6157(1) 0.1210 Uiso
H1 H 0.85990 1.50000 0.72020 0.1665 Uiso
N1 N 1.783(2) 1.50000 0.50000 0.0990 Uiso
N1 N 1.50000 1.783(2) 0.50000 0.0990 Uiso
Cu1 Cu 1.50000 1.50000 -0.50000 0.0980 Uiso
F1 F 1.50000 1.50000 0.768(3) 0.1190 Uiso
N1 N 1.50000 1.217(2) 1.50000 0.0990 Uiso
C1 C 1.50000 1.0893(1) 1.3843(1) 0.1210 Uiso
H1 H 1.50000 1.14010 1.27980 0.1665 Uiso
Cu1 Cu 1.50000 1.50000 1.50000 0.0980 Uiso
F1 F 1.50000 1.50000 1.232(3) 0.1190 Uiso
F2 F 1.3313(15) 1.3313(15) 1.00000 0.2040 Uiso
Si1 Si 1.50000 1.50000 1.00000 0.1580 Uiso
C1 C 1.50000 0.9107(1) 1.3843(1) 0.1210 Uiso
H1 H 1.50000 0.85990 1.27980 0.1665 Uiso
C1 C 1.50000 0.9107(1) 1.6157(1) 0.1210 Uiso
H1 H 1.50000 0.85990 1.72020 0.1665 Uiso
C1 C 1.50000 1.0893(1) 1.6157(1) 0.1210 Uiso
H1 H 1.50000 1.14010 1.72020 0.1665 Uiso
F2 F 1.6687(15) 1.3313(15) 1.00000 0.2040 Uiso
F2 F 1.6687(15) 1.6687(15) 1.00000 0.2040 Uiso
F2 F 1.3313(15) 1.6687(15) 1.00000 0.2040 Uiso
C1 C 0.9107(1) 1.50000 1.3843(1) 0.1210 Uiso
H1 H 0.85990 1.50000 1.27980 0.1665 Uiso
N1 N 1.217(2) 1.50000 1.50000 0.0990 Uiso
C1 C 1.0893(1) 1.50000 1.3843(1) 0.1210 Uiso
H1 H 1.14010 1.50000 1.27980 0.1665 Uiso
C1 C 1.0893(1) 1.50000 1.6157(1) 0.1210 Uiso
H1 H 1.14010 1.50000 1.72020 0.1665 Uiso
C1 C 0.9107(1) 1.50000 1.6157(1) 0.1210 Uiso
H1 H 0.85990 1.50000 1.72020 0.1665 Uiso
N1 N 1.783(2) 1.50000 1.50000 0.0990 Uiso
N1 N 1.50000 1.783(2) 1.50000 0.0990 Uiso
F1 F 1.50000 1.50000 1.768(3) 0.1190 Uiso
C1 C 1.9107(1) 0.50000 0.3843(1) 0.1210 Uiso
H1 H 1.85990 0.50000 0.27980 0.1665 Uiso
N1 N 2.217(2) 0.50000 0.50000 0.0990 Uiso
C1 C 2.0893(1) 0.50000 0.3843(1) 0.1210 Uiso
H1 H 2.14010 0.50000 0.27980 0.1665 Uiso
C1 C 2.0893(1) 0.50000 0.6157(1) 0.1210 Uiso
H1 H 2.14010 0.50000 0.72020 0.1665 Uiso
C1 C 1.9107(1) 0.50000 0.6157(1) 0.1210 Uiso
H1 H 1.85990 0.50000 0.72020 0.1665 Uiso
Cu1 Cu 2.50000 0.50000 0.50000 0.0980 Uiso
C1 C 1.9107(1) 0.50000 1.3843(1) 0.1210 Uiso
H1 H 1.85990 0.50000 1.27980 0.1665 Uiso
N1 N 2.217(2) 0.50000 1.50000 0.0990 Uiso
C1 C 2.0893(1) 0.50000 1.3843(1) 0.1210 Uiso
H1 H 2.14010 0.50000 1.27980 0.1665 Uiso
C1 C 2.0893(1) 0.50000 1.6157(1) 0.1210 Uiso
H1 H 2.14010 0.50000 1.72020 0.1665 Uiso
C1 C 1.9107(1) 0.50000 1.6157(1) 0.1210 Uiso
H1 H 1.85990 0.50000 1.72020 0.1665 Uiso
Cu1 Cu 2.50000 0.50000 1.50000 0.0980 Uiso
C1 C 1.9107(1) 1.50000 0.3843(1) 0.1210 Uiso
H1 H 1.85990 1.50000 0.27980 0.1665 Uiso
N1 N 2.217(2) 1.50000 0.50000 0.0990 Uiso
C1 C 2.0893(1) 1.50000 0.3843(1) 0.1210 Uiso
H1 H 2.14010 1.50000 0.27980 0.1665 Uiso
C1 C 2.0893(1) 1.50000 0.6157(1) 0.1210 Uiso
H1 H 2.14010 1.50000 0.72020 0.1665 Uiso
C1 C 1.9107(1) 1.50000 0.6157(1) 0.1210 Uiso
H1 H 1.85990 1.50000 0.72020 0.1665 Uiso
Cu1 Cu 2.50000 1.50000 0.50000 0.0980 Uiso
C1 C 1.9107(1) 1.50000 1.3843(1) 0.1210 Uiso
H1 H 1.85990 1.50000 1.27980 0.1665 Uiso
N1 N 2.217(2) 1.50000 1.50000 0.0990 Uiso
C1 C 2.0893(1) 1.50000 1.3843(1) 0.1210 Uiso
H1 H 2.14010 1.50000 1.27980 0.1665 Uiso
C1 C 2.0893(1) 1.50000 1.6157(1) 0.1210 Uiso
H1 H 2.14010 1.50000 1.72020 0.1665 Uiso
C1 C 1.9107(1) 1.50000 1.6157(1) 0.1210 Uiso
H1 H 1.85990 1.50000 1.72020 0.1665 Uiso
Cu1 Cu 2.50000 1.50000 1.50000 0.0980 Uiso
C1 C 0.50000 1.9107(1) 0.3843(1) 0.1210 Uiso
H1 H 0.50000 1.85990 0.27980 0.1665 Uiso
N1 N 0.50000 2.217(2) 0.50000 0.0990 Uiso
C1 C 0.50000 2.0893(1) 0.3843(1) 0.1210 Uiso
H1 H 0.50000 2.14010 0.27980 0.1665 Uiso
C1 C 0.50000 2.0893(1) 0.6157(1) 0.1210 Uiso
H1 H 0.50000 2.14010 0.72020 0.1665 Uiso
C1 C 0.50000 1.9107(1) 0.6157(1) 0.1210 Uiso
H1 H 0.50000 1.85990 0.72020 0.1665 Uiso
Cu1 Cu 0.50000 2.50000 0.50000 0.0980 Uiso
C1 C 0.50000 1.9107(1) 1.3843(1) 0.1210 Uiso
H1 H 0.50000 1.85990 1.27980 0.1665 Uiso
N1 N 0.50000 2.217(2) 1.50000 0.0990 Uiso
C1 C 0.50000 2.0893(1) 1.3843(1) 0.1210 Uiso
H1 H 0.50000 2.14010 1.27980 0.1665 Uiso
C1 C 0.50000 2.0893(1) 1.6157(1) 0.1210 Uiso
H1 H 0.50000 2.14010 1.72020 0.1665 Uiso
C1 C 0.50000 1.9107(1) 1.6157(1) 0.1210 Uiso
H1 H 0.50000 1.85990 1.72020 0.1665 Uiso
Cu1 Cu 0.50000 2.50000 1.50000 0.0980 Uiso
C1 C 1.50000 1.9107(1) 0.3843(1) 0.1210 Uiso
H1 H 1.50000 1.85990 0.27980 0.1665 Uiso
N1 N 1.50000 2.217(2) 0.50000 0.0990 Uiso
C1 C 1.50000 2.0893(1) 0.3843(1) 0.1210 Uiso
H1 H 1.50000 2.14010 0.27980 0.1665 Uiso
C1 C 1.50000 2.0893(1) 0.6157(1) 0.1210 Uiso
H1 H 1.50000 2.14010 0.72020 0.1665 Uiso
C1 C 1.50000 1.9107(1) 0.6157(1) 0.1210 Uiso
H1 H 1.50000 1.85990 0.72020 0.1665 Uiso
Cu1 Cu 1.50000 2.50000 0.50000 0.0980 Uiso
C1 C 1.50000 1.9107(1) 1.3843(1) 0.1210 Uiso
H1 H 1.50000 1.85990 1.27980 0.1665 Uiso
N1 N 1.50000 2.217(2) 1.50000 0.0990 Uiso
C1 C 1.50000 2.0893(1) 1.3843(1) 0.1210 Uiso
H1 H 1.50000 2.14010 1.27980 0.1665 Uiso
C1 C 1.50000 2.0893(1) 1.6157(1) 0.1210 Uiso
H1 H 1.50000 2.14010 1.72020 0.1665 Uiso
C1 C 1.50000 1.9107(1) 1.6157(1) 0.1210 Uiso
H1 H 1.50000 1.85990 1.72020 0.1665 Uiso
Cu1 Cu 1.50000 2.50000 1.50000 0.0980 Uiso
F2 F 0.6687(15) 0.6687(15) 2.00000 0.2040 Uiso
Si1 Si 0.50000 0.50000 2.00000 0.1580 Uiso
F2 F 0.3313(15) 0.6687(15) 2.00000 0.2040 Uiso
F2 F 0.3313(15) 0.3313(15) 2.00000 0.2040 Uiso
F2 F 0.6687(15) 0.3313(15) 2.00000 0.2040 Uiso
F1 F 0.50000 0.50000 2.232(3) 0.1190 Uiso
Cu1 Cu 0.50000 0.50000 2.50000 0.0980 Uiso
F2 F 0.6687(15) 1.6687(15) 2.00000 0.2040 Uiso
Si1 Si 0.50000 1.50000 2.00000 0.1580 Uiso
F2 F 0.3313(15) 1.6687(15) 2.00000 0.2040 Uiso
F2 F 0.3313(15) 1.3313(15) 2.00000 0.2040 Uiso
F2 F 0.6687(15) 1.3313(15) 2.00000 0.2040 Uiso
F1 F 0.50000 1.50000 2.232(3) 0.1190 Uiso
Cu1 Cu 0.50000 1.50000 2.50000 0.0980 Uiso
F2 F 1.6687(15) 0.6687(15) 2.00000 0.2040 Uiso
Si1 Si 1.50000 0.50000 2.00000 0.1580 Uiso
F2 F 1.3313(15) 0.6687(15) 2.00000 0.2040 Uiso
F2 F 1.3313(15) 0.3313(15) 2.00000 0.2040 Uiso
F2 F 1.6687(15) 0.3313(15) 2.00000 0.2040 Uiso
F1 F 1.50000 0.50000 2.232(3) 0.1190 Uiso
Cu1 Cu 1.50000 0.50000 2.50000 0.0980 Uiso
F2 F 1.6687(15) 1.6687(15) 2.00000 0.2040 Uiso
Si1 Si 1.50000 1.50000 2.00000 0.1580 Uiso
F2 F 1.3313(15) 1.6687(15) 2.00000 0.2040 Uiso
F2 F 1.3313(15) 1.3313(15) 2.00000 0.2040 Uiso
F2 F 1.6687(15) 1.3313(15) 2.00000 0.2040 Uiso
F1 F 1.50000 1.50000 2.232(3) 0.1190 Uiso
Cu1 Cu 1.50000 1.50000 2.50000 0.0980 Uiso

#END
