
#######################################################################
#
#                 Cambridge Crystallographic Data Centre
#                                CCDC 
#
#######################################################################
#
# If this CIF has been generated from an entry in the Cambridge 
# Structural Database, then it will include bibliographic, chemical, 
# crystal, experimental, refinement or atomic coordinate data resulting 
# from the CCDC's data processing and validation procedures.
#
#######################################################################

data_p4_mmm
_symmetry_cell_setting           tetragonal
_symmetry_space_group_name_H-M   'P 4/m m m'
_symmetry_Int_Tables_number      123
_space_group_name_Hall           '-P 4 2'
loop_
_symmetry_equiv_pos_site_id
_symmetry_equiv_pos_as_xyz
1 x,y,z
2 -y,x,z
3 y,-x,z
4 x,-y,-z
5 -x,y,-z
6 -x,-y,z
7 y,x,-z
8 -y,-x,-z
9 -x,-y,-z
10 y,-x,-z
11 -y,x,-z
12 -x,y,z
13 x,-y,z
14 x,y,-z
15 -y,-x,z
16 y,x,z
_cell_length_a                   11.045(8)
_cell_length_b                   11.045(8)
_cell_length_c                   8.163(6)
_cell_angle_alpha                90.00
_cell_angle_beta                 90.00
_cell_angle_gamma                90.00
_cell_volume                     995.821
loop_
_atom_site_label
_atom_site_type_symbol
_atom_site_fract_x
_atom_site_fract_y
_atom_site_fract_z
Cu1 Cu 0.5000 0.5000 0.5000
Si1 Si 0.5000 0.5000 1.0000
F1 F 0.5000 0.5000 0.7914(5)
F2 F 0.3929(6) 0.3929(6) 1.0000
F3 F 0.4449(7) 0.3587(5) 1.0000
F4 F 0.5000 0.349(5) 1.0000
N1 N 0.3183(3) 0.5000 0.5000
C1 C 0.2560(5) 0.4585(5) 0.3724(7)
H1 H 0.2993 0.4288 0.2801
C2 C 0.1315(5) 0.4567(6) 0.3685(7)
H2 H 0.0901 0.4258 0.2753
C3 C 0.0674(4) 0.5000 0.5000
F1 F 0.5000 0.5000 1.2086(5)
C1 C 0.2560(5) 0.5415(5) 0.6276(7)
H1 H 0.2993 0.5712 0.7199
C2 C 0.1315(5) 0.5433(6) 0.6315(7)
H2 H 0.0901 0.5742 0.7247
N1 N -0.3183(3) 0.5000 0.5000
C1 C -0.2560(5) 0.4585(5) 0.6276(7)
H1 H -0.2993 0.4288 0.7199
C2 C -0.1315(5) 0.4567(6) 0.6315(7)
H2 H -0.0901 0.4258 0.7247
C3 C -0.0674(4) 0.5000 0.5000
C1 C -0.2560(5) 0.5415(5) 0.3724(7)
H1 H -0.2993 0.5712 0.2801
C2 C -0.1315(5) 0.5433(6) 0.3685(7)
H2 H -0.0901 0.5742 0.2753
C1 C -0.2560(5) 0.5415(5) 0.6276(7)
H1 H -0.2993 0.5712 0.7199
C2 C -0.1315(5) 0.5433(6) 0.6315(7)
H2 H -0.0901 0.5742 0.7247
C1 C -0.2560(5) 0.4585(5) 0.3724(7)
H1 H -0.2993 0.4288 0.2801
C2 C -0.1315(5) 0.4567(6) 0.3685(7)
H2 H -0.0901 0.4258 0.2753
C1 C 0.2560(5) 0.5415(5) 0.3724(7)
H1 H 0.2993 0.5712 0.2801
C2 C 0.1315(5) 0.5433(6) 0.3685(7)
H2 H 0.0901 0.5742 0.2753
C1 C 0.2560(5) 0.4585(5) 0.6276(7)
H1 H 0.2993 0.4288 0.7199
C2 C 0.1315(5) 0.4567(6) 0.6315(7)
H2 H 0.0901 0.4258 0.7247
N1 N 0.5000 0.3183(3) 0.5000
C1 C 0.5415(5) 0.2560(5) 0.3724(7)
H1 H 0.5712 0.2993 0.2801
C2 C 0.5433(6) 0.1315(5) 0.3685(7)
H2 H 0.5742 0.0901 0.2753
C3 C 0.5000 0.0674(4) 0.5000
C1 C 0.4585(5) 0.2560(5) 0.6276(7)
H1 H 0.4288 0.2993 0.7199
C2 C 0.4567(6) 0.1315(5) 0.6315(7)
H2 H 0.4258 0.0901 0.7247
N1 N 0.5000 -0.3183(3) 0.5000
C1 C 0.5415(5) -0.2560(5) 0.6276(7)
H1 H 0.5712 -0.2993 0.7199
C2 C 0.5433(6) -0.1315(5) 0.6315(7)
H2 H 0.5742 -0.0901 0.7247
C3 C 0.5000 -0.0674(4) 0.5000
C1 C 0.4585(5) -0.2560(5) 0.3724(7)
H1 H 0.4288 -0.2993 0.2801
C2 C 0.4567(6) -0.1315(5) 0.3685(7)
H2 H 0.4258 -0.0901 0.2753
C1 C 0.4585(5) -0.2560(5) 0.6276(7)
H1 H 0.4288 -0.2993 0.7199
C2 C 0.4567(6) -0.1315(5) 0.6315(7)
H2 H 0.4258 -0.0901 0.7247
C1 C 0.5415(5) -0.2560(5) 0.3724(7)
H1 H 0.5712 -0.2993 0.2801
C2 C 0.5433(6) -0.1315(5) 0.3685(7)
H2 H 0.5742 -0.0901 0.2753
C1 C 0.4585(5) 0.2560(5) 0.3724(7)
H1 H 0.4288 0.2993 0.2801
C2 C 0.4567(6) 0.1315(5) 0.3685(7)
H2 H 0.4258 0.0901 0.2753
C1 C 0.5415(5) 0.2560(5) 0.6276(7)
H1 H 0.5712 0.2993 0.7199
C2 C 0.5433(6) 0.1315(5) 0.6315(7)
H2 H 0.5742 0.0901 0.7247
Cu1 Cu -0.5000 0.5000 0.5000
Cu1 Cu 0.5000 -0.5000 0.5000
Cu1 Cu 0.5000 0.5000 1.5000
F1 F 0.5000 0.5000 0.2086(5)
N1 N 0.5000 0.6817(3) 0.5000
N1 N 0.6817(3) 0.5000 0.5000
Si1 Si 0.5000 0.5000 2.0000
F1 F 0.5000 0.5000 1.7914(5)
F2 F 0.3929(6) 0.3929(6) 2.0000
F3 F 0.4449(7) 0.3587(5) 2.0000
F4 F 0.5000 0.349(5) 2.0000
N1 N 0.3183(3) 0.5000 1.5000
C1 C 0.2560(5) 0.4585(5) 1.3724(7)
H1 H 0.2993 0.4288 1.2801
C2 C 0.1315(5) 0.4567(6) 1.3685(7)
H2 H 0.0901 0.4258 1.2753
C3 C 0.0674(4) 0.5000 1.5000
F1 F 0.5000 0.5000 2.2086(5)
C1 C 0.2560(5) 0.5415(5) 1.6276(7)
H1 H 0.2993 0.5712 1.7199
C2 C 0.1315(5) 0.5433(6) 1.6315(7)
H2 H 0.0901 0.5742 1.7247
N1 N -0.3183(3) 0.5000 1.5000
C1 C -0.2560(5) 0.4585(5) 1.6276(7)
H1 H -0.2993 0.4288 1.7199
C2 C -0.1315(5) 0.4567(6) 1.6315(7)
H2 H -0.0901 0.4258 1.7247
C3 C -0.0674(4) 0.5000 1.5000
C1 C -0.2560(5) 0.5415(5) 1.3724(7)
H1 H -0.2993 0.5712 1.2801
C2 C -0.1315(5) 0.5433(6) 1.3685(7)
H2 H -0.0901 0.5742 1.2753
C1 C -0.2560(5) 0.5415(5) 1.6276(7)
H1 H -0.2993 0.5712 1.7199
C2 C -0.1315(5) 0.5433(6) 1.6315(7)
H2 H -0.0901 0.5742 1.7247
C1 C -0.2560(5) 0.4585(5) 1.3724(7)
H1 H -0.2993 0.4288 1.2801
C2 C -0.1315(5) 0.4567(6) 1.3685(7)
H2 H -0.0901 0.4258 1.2753
C1 C 0.2560(5) 0.5415(5) 1.3724(7)
H1 H 0.2993 0.5712 1.2801
C2 C 0.1315(5) 0.5433(6) 1.3685(7)
H2 H 0.0901 0.5742 1.2753
C1 C 0.2560(5) 0.4585(5) 1.6276(7)
H1 H 0.2993 0.4288 1.7199
C2 C 0.1315(5) 0.4567(6) 1.6315(7)
H2 H 0.0901 0.4258 1.7247
N1 N 0.5000 0.3183(3) 1.5000
C1 C 0.5415(5) 0.2560(5) 1.3724(7)
H1 H 0.5712 0.2993 1.2801
C2 C 0.5433(6) 0.1315(5) 1.3685(7)
H2 H 0.5742 0.0901 1.2753
C3 C 0.5000 0.0674(4) 1.5000
C1 C 0.4585(5) 0.2560(5) 1.6276(7)
H1 H 0.4288 0.2993 1.7199
C2 C 0.4567(6) 0.1315(5) 1.6315(7)
H2 H 0.4258 0.0901 1.7247
N1 N 0.5000 -0.3183(3) 1.5000
C1 C 0.5415(5) -0.2560(5) 1.6276(7)
H1 H 0.5712 -0.2993 1.7199
C2 C 0.5433(6) -0.1315(5) 1.6315(7)
H2 H 0.5742 -0.0901 1.7247
C3 C 0.5000 -0.0674(4) 1.5000
C1 C 0.4585(5) -0.2560(5) 1.3724(7)
H1 H 0.4288 -0.2993 1.2801
C2 C 0.4567(6) -0.1315(5) 1.3685(7)
H2 H 0.4258 -0.0901 1.2753
C1 C 0.4585(5) -0.2560(5) 1.6276(7)
H1 H 0.4288 -0.2993 1.7199
C2 C 0.4567(6) -0.1315(5) 1.6315(7)
H2 H 0.4258 -0.0901 1.7247
C1 C 0.5415(5) -0.2560(5) 1.3724(7)
H1 H 0.5712 -0.2993 1.2801
C2 C 0.5433(6) -0.1315(5) 1.3685(7)
H2 H 0.5742 -0.0901 1.2753
C1 C 0.4585(5) 0.2560(5) 1.3724(7)
H1 H 0.4288 0.2993 1.2801
C2 C 0.4567(6) 0.1315(5) 1.3685(7)
H2 H 0.4258 0.0901 1.2753
C1 C 0.5415(5) 0.2560(5) 1.6276(7)
H1 H 0.5712 0.2993 1.7199
C2 C 0.5433(6) 0.1315(5) 1.6315(7)
H2 H 0.5742 0.0901 1.7247
Cu1 Cu -0.5000 0.5000 1.5000
Cu1 Cu 0.5000 -0.5000 1.5000
Cu1 Cu 0.5000 0.5000 2.5000
N1 N 0.5000 0.6817(3) 1.5000
N1 N 0.6817(3) 0.5000 1.5000
Cu1 Cu 0.5000 1.5000 0.5000
Si1 Si 0.5000 1.5000 1.0000
F1 F 0.5000 1.5000 0.7914(5)
F2 F 0.3929(6) 1.3929(6) 1.0000
F3 F 0.4449(7) 1.3587(5) 1.0000
F4 F 0.5000 1.349(5) 1.0000
N1 N 0.3183(3) 1.5000 0.5000
C1 C 0.2560(5) 1.4585(5) 0.3724(7)
H1 H 0.2993 1.4288 0.2801
C2 C 0.1315(5) 1.4567(6) 0.3685(7)
H2 H 0.0901 1.4258 0.2753
C3 C 0.0674(4) 1.5000 0.5000
F1 F 0.5000 1.5000 1.2086(5)
C1 C 0.2560(5) 1.5415(5) 0.6276(7)
H1 H 0.2993 1.5712 0.7199
C2 C 0.1315(5) 1.5433(6) 0.6315(7)
H2 H 0.0901 1.5742 0.7247
N1 N -0.3183(3) 1.5000 0.5000
C1 C -0.2560(5) 1.4585(5) 0.6276(7)
H1 H -0.2993 1.4288 0.7199
C2 C -0.1315(5) 1.4567(6) 0.6315(7)
H2 H -0.0901 1.4258 0.7247
C3 C -0.0674(4) 1.5000 0.5000
C1 C -0.2560(5) 1.5415(5) 0.3724(7)
H1 H -0.2993 1.5712 0.2801
C2 C -0.1315(5) 1.5433(6) 0.3685(7)
H2 H -0.0901 1.5742 0.2753
C1 C -0.2560(5) 1.5415(5) 0.6276(7)
H1 H -0.2993 1.5712 0.7199
C2 C -0.1315(5) 1.5433(6) 0.6315(7)
H2 H -0.0901 1.5742 0.7247
C1 C -0.2560(5) 1.4585(5) 0.3724(7)
H1 H -0.2993 1.4288 0.2801
C2 C -0.1315(5) 1.4567(6) 0.3685(7)
H2 H -0.0901 1.4258 0.2753
C1 C 0.2560(5) 1.5415(5) 0.3724(7)
H1 H 0.2993 1.5712 0.2801
C2 C 0.1315(5) 1.5433(6) 0.3685(7)
H2 H 0.0901 1.5742 0.2753
C1 C 0.2560(5) 1.4585(5) 0.6276(7)
H1 H 0.2993 1.4288 0.7199
C2 C 0.1315(5) 1.4567(6) 0.6315(7)
H2 H 0.0901 1.4258 0.7247
N1 N 0.5000 1.3183(3) 0.5000
C1 C 0.5415(5) 1.2560(5) 0.3724(7)
H1 H 0.5712 1.2993 0.2801
C2 C 0.5433(6) 1.1315(5) 0.3685(7)
H2 H 0.5742 1.0901 0.2753
C3 C 0.5000 1.0674(4) 0.5000
C1 C 0.4585(5) 1.2560(5) 0.6276(7)
H1 H 0.4288 1.2993 0.7199
C2 C 0.4567(6) 1.1315(5) 0.6315(7)
H2 H 0.4258 1.0901 0.7247
C1 C 0.5415(5) 0.7440(5) 0.6276(7)
H1 H 0.5712 0.7007 0.7199
C2 C 0.5433(6) 0.8685(5) 0.6315(7)
H2 H 0.5742 0.9099 0.7247
C3 C 0.5000 0.9326(4) 0.5000
C1 C 0.4585(5) 0.7440(5) 0.3724(7)
H1 H 0.4288 0.7007 0.2801
C2 C 0.4567(6) 0.8685(5) 0.3685(7)
H2 H 0.4258 0.9099 0.2753
C1 C 0.4585(5) 0.7440(5) 0.6276(7)
H1 H 0.4288 0.7007 0.7199
C2 C 0.4567(6) 0.8685(5) 0.6315(7)
H2 H 0.4258 0.9099 0.7247
C1 C 0.5415(5) 0.7440(5) 0.3724(7)
H1 H 0.5712 0.7007 0.2801
C2 C 0.5433(6) 0.8685(5) 0.3685(7)
H2 H 0.5742 0.9099 0.2753
C1 C 0.4585(5) 1.2560(5) 0.3724(7)
H1 H 0.4288 1.2993 0.2801
C2 C 0.4567(6) 1.1315(5) 0.3685(7)
H2 H 0.4258 1.0901 0.2753
C1 C 0.5415(5) 1.2560(5) 0.6276(7)
H1 H 0.5712 1.2993 0.7199
C2 C 0.5433(6) 1.1315(5) 0.6315(7)
H2 H 0.5742 1.0901 0.7247
Cu1 Cu -0.5000 1.5000 0.5000
Cu1 Cu 0.5000 1.5000 1.5000
F1 F 0.5000 1.5000 0.2086(5)
N1 N 0.5000 1.6817(3) 0.5000
N1 N 0.6817(3) 1.5000 0.5000
Si1 Si 0.5000 1.5000 2.0000
F1 F 0.5000 1.5000 1.7914(5)
F2 F 0.3929(6) 1.3929(6) 2.0000
F3 F 0.4449(7) 1.3587(5) 2.0000
F4 F 0.5000 1.349(5) 2.0000
N1 N 0.3183(3) 1.5000 1.5000
C1 C 0.2560(5) 1.4585(5) 1.3724(7)
H1 H 0.2993 1.4288 1.2801
C2 C 0.1315(5) 1.4567(6) 1.3685(7)
H2 H 0.0901 1.4258 1.2753
C3 C 0.0674(4) 1.5000 1.5000
F1 F 0.5000 1.5000 2.2086(5)
C1 C 0.2560(5) 1.5415(5) 1.6276(7)
H1 H 0.2993 1.5712 1.7199
C2 C 0.1315(5) 1.5433(6) 1.6315(7)
H2 H 0.0901 1.5742 1.7247
N1 N -0.3183(3) 1.5000 1.5000
C1 C -0.2560(5) 1.4585(5) 1.6276(7)
H1 H -0.2993 1.4288 1.7199
C2 C -0.1315(5) 1.4567(6) 1.6315(7)
H2 H -0.0901 1.4258 1.7247
C3 C -0.0674(4) 1.5000 1.5000
C1 C -0.2560(5) 1.5415(5) 1.3724(7)
H1 H -0.2993 1.5712 1.2801
C2 C -0.1315(5) 1.5433(6) 1.3685(7)
H2 H -0.0901 1.5742 1.2753
C1 C -0.2560(5) 1.5415(5) 1.6276(7)
H1 H -0.2993 1.5712 1.7199
C2 C -0.1315(5) 1.5433(6) 1.6315(7)
H2 H -0.0901 1.5742 1.7247
C1 C -0.2560(5) 1.4585(5) 1.3724(7)
H1 H -0.2993 1.4288 1.2801
C2 C -0.1315(5) 1.4567(6) 1.3685(7)
H2 H -0.0901 1.4258 1.2753
C1 C 0.2560(5) 1.5415(5) 1.3724(7)
H1 H 0.2993 1.5712 1.2801
C2 C 0.1315(5) 1.5433(6) 1.3685(7)
H2 H 0.0901 1.5742 1.2753
C1 C 0.2560(5) 1.4585(5) 1.6276(7)
H1 H 0.2993 1.4288 1.7199
C2 C 0.1315(5) 1.4567(6) 1.6315(7)
H2 H 0.0901 1.4258 1.7247
N1 N 0.5000 1.3183(3) 1.5000
C1 C 0.5415(5) 1.2560(5) 1.3724(7)
H1 H 0.5712 1.2993 1.2801
C2 C 0.5433(6) 1.1315(5) 1.3685(7)
H2 H 0.5742 1.0901 1.2753
C3 C 0.5000 1.0674(4) 1.5000
C1 C 0.4585(5) 1.2560(5) 1.6276(7)
H1 H 0.4288 1.2993 1.7199
C2 C 0.4567(6) 1.1315(5) 1.6315(7)
H2 H 0.4258 1.0901 1.7247
C1 C 0.5415(5) 0.7440(5) 1.6276(7)
H1 H 0.5712 0.7007 1.7199
C2 C 0.5433(6) 0.8685(5) 1.6315(7)
H2 H 0.5742 0.9099 1.7247
C3 C 0.5000 0.9326(4) 1.5000
C1 C 0.4585(5) 0.7440(5) 1.3724(7)
H1 H 0.4288 0.7007 1.2801
C2 C 0.4567(6) 0.8685(5) 1.3685(7)
H2 H 0.4258 0.9099 1.2753
C1 C 0.4585(5) 0.7440(5) 1.6276(7)
H1 H 0.4288 0.7007 1.7199
C2 C 0.4567(6) 0.8685(5) 1.6315(7)
H2 H 0.4258 0.9099 1.7247
C1 C 0.5415(5) 0.7440(5) 1.3724(7)
H1 H 0.5712 0.7007 1.2801
C2 C 0.5433(6) 0.8685(5) 1.3685(7)
H2 H 0.5742 0.9099 1.2753
C1 C 0.4585(5) 1.2560(5) 1.3724(7)
H1 H 0.4288 1.2993 1.2801
C2 C 0.4567(6) 1.1315(5) 1.3685(7)
H2 H 0.4258 1.0901 1.2753
C1 C 0.5415(5) 1.2560(5) 1.6276(7)
H1 H 0.5712 1.2993 1.7199
C2 C 0.5433(6) 1.1315(5) 1.6315(7)
H2 H 0.5742 1.0901 1.7247
Cu1 Cu -0.5000 1.5000 1.5000
Cu1 Cu 0.5000 1.5000 2.5000
N1 N 0.5000 1.6817(3) 1.5000
N1 N 0.6817(3) 1.5000 1.5000
Cu1 Cu 1.5000 0.5000 0.5000
Si1 Si 1.5000 0.5000 1.0000
F1 F 1.5000 0.5000 0.7914(5)
F2 F 1.3929(6) 0.3929(6) 1.0000
F3 F 1.4449(7) 0.3587(5) 1.0000
F4 F 1.5000 0.349(5) 1.0000
N1 N 1.3183(3) 0.5000 0.5000
C1 C 1.2560(5) 0.4585(5) 0.3724(7)
H1 H 1.2993 0.4288 0.2801
C2 C 1.1315(5) 0.4567(6) 0.3685(7)
H2 H 1.0901 0.4258 0.2753
C3 C 1.0674(4) 0.5000 0.5000
F1 F 1.5000 0.5000 1.2086(5)
C1 C 1.2560(5) 0.5415(5) 0.6276(7)
H1 H 1.2993 0.5712 0.7199
C2 C 1.1315(5) 0.5433(6) 0.6315(7)
H2 H 1.0901 0.5742 0.7247
C1 C 0.7440(5) 0.4585(5) 0.6276(7)
H1 H 0.7007 0.4288 0.7199
C2 C 0.8685(5) 0.4567(6) 0.6315(7)
H2 H 0.9099 0.4258 0.7247
C3 C 0.9326(4) 0.5000 0.5000
C1 C 0.7440(5) 0.5415(5) 0.3724(7)
H1 H 0.7007 0.5712 0.2801
C2 C 0.8685(5) 0.5433(6) 0.3685(7)
H2 H 0.9099 0.5742 0.2753
C1 C 0.7440(5) 0.5415(5) 0.6276(7)
H1 H 0.7007 0.5712 0.7199
C2 C 0.8685(5) 0.5433(6) 0.6315(7)
H2 H 0.9099 0.5742 0.7247
C1 C 0.7440(5) 0.4585(5) 0.3724(7)
H1 H 0.7007 0.4288 0.2801
C2 C 0.8685(5) 0.4567(6) 0.3685(7)
H2 H 0.9099 0.4258 0.2753
C1 C 1.2560(5) 0.5415(5) 0.3724(7)
H1 H 1.2993 0.5712 0.2801
C2 C 1.1315(5) 0.5433(6) 0.3685(7)
H2 H 1.0901 0.5742 0.2753
C1 C 1.2560(5) 0.4585(5) 0.6276(7)
H1 H 1.2993 0.4288 0.7199
C2 C 1.1315(5) 0.4567(6) 0.6315(7)
H2 H 1.0901 0.4258 0.7247
N1 N 1.5000 0.3183(3) 0.5000
C1 C 1.5415(5) 0.2560(5) 0.3724(7)
H1 H 1.5712 0.2993 0.2801
C2 C 1.5433(6) 0.1315(5) 0.3685(7)
H2 H 1.5742 0.0901 0.2753
C3 C 1.5000 0.0674(4) 0.5000
C1 C 1.4585(5) 0.2560(5) 0.6276(7)
H1 H 1.4288 0.2993 0.7199
C2 C 1.4567(6) 0.1315(5) 0.6315(7)
H2 H 1.4258 0.0901 0.7247
N1 N 1.5000 -0.3183(3) 0.5000
C1 C 1.5415(5) -0.2560(5) 0.6276(7)
H1 H 1.5712 -0.2993 0.7199
C2 C 1.5433(6) -0.1315(5) 0.6315(7)
H2 H 1.5742 -0.0901 0.7247
C3 C 1.5000 -0.0674(4) 0.5000
C1 C 1.4585(5) -0.2560(5) 0.3724(7)
H1 H 1.4288 -0.2993 0.2801
C2 C 1.4567(6) -0.1315(5) 0.3685(7)
H2 H 1.4258 -0.0901 0.2753
C1 C 1.4585(5) -0.2560(5) 0.6276(7)
H1 H 1.4288 -0.2993 0.7199
C2 C 1.4567(6) -0.1315(5) 0.6315(7)
H2 H 1.4258 -0.0901 0.7247
C1 C 1.5415(5) -0.2560(5) 0.3724(7)
H1 H 1.5712 -0.2993 0.2801
C2 C 1.5433(6) -0.1315(5) 0.3685(7)
H2 H 1.5742 -0.0901 0.2753
C1 C 1.4585(5) 0.2560(5) 0.3724(7)
H1 H 1.4288 0.2993 0.2801
C2 C 1.4567(6) 0.1315(5) 0.3685(7)
H2 H 1.4258 0.0901 0.2753
C1 C 1.5415(5) 0.2560(5) 0.6276(7)
H1 H 1.5712 0.2993 0.7199
C2 C 1.5433(6) 0.1315(5) 0.6315(7)
H2 H 1.5742 0.0901 0.7247
Cu1 Cu 1.5000 -0.5000 0.5000
Cu1 Cu 1.5000 0.5000 1.5000
F1 F 1.5000 0.5000 0.2086(5)
N1 N 1.5000 0.6817(3) 0.5000
N1 N 1.6817(3) 0.5000 0.5000
Si1 Si 1.5000 0.5000 2.0000
F1 F 1.5000 0.5000 1.7914(5)
F2 F 1.3929(6) 0.3929(6) 2.0000
F3 F 1.4449(7) 0.3587(5) 2.0000
F4 F 1.5000 0.349(5) 2.0000
N1 N 1.3183(3) 0.5000 1.5000
C1 C 1.2560(5) 0.4585(5) 1.3724(7)
H1 H 1.2993 0.4288 1.2801
C2 C 1.1315(5) 0.4567(6) 1.3685(7)
H2 H 1.0901 0.4258 1.2753
C3 C 1.0674(4) 0.5000 1.5000
F1 F 1.5000 0.5000 2.2086(5)
C1 C 1.2560(5) 0.5415(5) 1.6276(7)
H1 H 1.2993 0.5712 1.7199
C2 C 1.1315(5) 0.5433(6) 1.6315(7)
H2 H 1.0901 0.5742 1.7247
C1 C 0.7440(5) 0.4585(5) 1.6276(7)
H1 H 0.7007 0.4288 1.7199
C2 C 0.8685(5) 0.4567(6) 1.6315(7)
H2 H 0.9099 0.4258 1.7247
C3 C 0.9326(4) 0.5000 1.5000
C1 C 0.7440(5) 0.5415(5) 1.3724(7)
H1 H 0.7007 0.5712 1.2801
C2 C 0.8685(5) 0.5433(6) 1.3685(7)
H2 H 0.9099 0.5742 1.2753
C1 C 0.7440(5) 0.5415(5) 1.6276(7)
H1 H 0.7007 0.5712 1.7199
C2 C 0.8685(5) 0.5433(6) 1.6315(7)
H2 H 0.9099 0.5742 1.7247
C1 C 0.7440(5) 0.4585(5) 1.3724(7)
H1 H 0.7007 0.4288 1.2801
C2 C 0.8685(5) 0.4567(6) 1.3685(7)
H2 H 0.9099 0.4258 1.2753
C1 C 1.2560(5) 0.5415(5) 1.3724(7)
H1 H 1.2993 0.5712 1.2801
C2 C 1.1315(5) 0.5433(6) 1.3685(7)
H2 H 1.0901 0.5742 1.2753
C1 C 1.2560(5) 0.4585(5) 1.6276(7)
H1 H 1.2993 0.4288 1.7199
C2 C 1.1315(5) 0.4567(6) 1.6315(7)
H2 H 1.0901 0.4258 1.7247
N1 N 1.5000 0.3183(3) 1.5000
C1 C 1.5415(5) 0.2560(5) 1.3724(7)
H1 H 1.5712 0.2993 1.2801
C2 C 1.5433(6) 0.1315(5) 1.3685(7)
H2 H 1.5742 0.0901 1.2753
C3 C 1.5000 0.0674(4) 1.5000
C1 C 1.4585(5) 0.2560(5) 1.6276(7)
H1 H 1.4288 0.2993 1.7199
C2 C 1.4567(6) 0.1315(5) 1.6315(7)
H2 H 1.4258 0.0901 1.7247
N1 N 1.5000 -0.3183(3) 1.5000
C1 C 1.5415(5) -0.2560(5) 1.6276(7)
H1 H 1.5712 -0.2993 1.7199
C2 C 1.5433(6) -0.1315(5) 1.6315(7)
H2 H 1.5742 -0.0901 1.7247
C3 C 1.5000 -0.0674(4) 1.5000
C1 C 1.4585(5) -0.2560(5) 1.3724(7)
H1 H 1.4288 -0.2993 1.2801
C2 C 1.4567(6) -0.1315(5) 1.3685(7)
H2 H 1.4258 -0.0901 1.2753
C1 C 1.4585(5) -0.2560(5) 1.6276(7)
H1 H 1.4288 -0.2993 1.7199
C2 C 1.4567(6) -0.1315(5) 1.6315(7)
H2 H 1.4258 -0.0901 1.7247
C1 C 1.5415(5) -0.2560(5) 1.3724(7)
H1 H 1.5712 -0.2993 1.2801
C2 C 1.5433(6) -0.1315(5) 1.3685(7)
H2 H 1.5742 -0.0901 1.2753
C1 C 1.4585(5) 0.2560(5) 1.3724(7)
H1 H 1.4288 0.2993 1.2801
C2 C 1.4567(6) 0.1315(5) 1.3685(7)
H2 H 1.4258 0.0901 1.2753
C1 C 1.5415(5) 0.2560(5) 1.6276(7)
H1 H 1.5712 0.2993 1.7199
C2 C 1.5433(6) 0.1315(5) 1.6315(7)
H2 H 1.5742 0.0901 1.7247
Cu1 Cu 1.5000 -0.5000 1.5000
Cu1 Cu 1.5000 0.5000 2.5000
N1 N 1.5000 0.6817(3) 1.5000
N1 N 1.6817(3) 0.5000 1.5000
Cu1 Cu 1.5000 1.5000 0.5000
Si1 Si 1.5000 1.5000 1.0000
F1 F 1.5000 1.5000 0.7914(5)
F2 F 1.3929(6) 1.3929(6) 1.0000
F3 F 1.4449(7) 1.3587(5) 1.0000
F4 F 1.5000 1.349(5) 1.0000
N1 N 1.3183(3) 1.5000 0.5000
C1 C 1.2560(5) 1.4585(5) 0.3724(7)
H1 H 1.2993 1.4288 0.2801
C2 C 1.1315(5) 1.4567(6) 0.3685(7)
H2 H 1.0901 1.4258 0.2753
C3 C 1.0674(4) 1.5000 0.5000
F1 F 1.5000 1.5000 1.2086(5)
C1 C 1.2560(5) 1.5415(5) 0.6276(7)
H1 H 1.2993 1.5712 0.7199
C2 C 1.1315(5) 1.5433(6) 0.6315(7)
H2 H 1.0901 1.5742 0.7247
C1 C 0.7440(5) 1.4585(5) 0.6276(7)
H1 H 0.7007 1.4288 0.7199
C2 C 0.8685(5) 1.4567(6) 0.6315(7)
H2 H 0.9099 1.4258 0.7247
C3 C 0.9326(4) 1.5000 0.5000
C1 C 0.7440(5) 1.5415(5) 0.3724(7)
H1 H 0.7007 1.5712 0.2801
C2 C 0.8685(5) 1.5433(6) 0.3685(7)
H2 H 0.9099 1.5742 0.2753
C1 C 0.7440(5) 1.5415(5) 0.6276(7)
H1 H 0.7007 1.5712 0.7199
C2 C 0.8685(5) 1.5433(6) 0.6315(7)
H2 H 0.9099 1.5742 0.7247
C1 C 0.7440(5) 1.4585(5) 0.3724(7)
H1 H 0.7007 1.4288 0.2801
C2 C 0.8685(5) 1.4567(6) 0.3685(7)
H2 H 0.9099 1.4258 0.2753
C1 C 1.2560(5) 1.5415(5) 0.3724(7)
H1 H 1.2993 1.5712 0.2801
C2 C 1.1315(5) 1.5433(6) 0.3685(7)
H2 H 1.0901 1.5742 0.2753
C1 C 1.2560(5) 1.4585(5) 0.6276(7)
H1 H 1.2993 1.4288 0.7199
C2 C 1.1315(5) 1.4567(6) 0.6315(7)
H2 H 1.0901 1.4258 0.7247
N1 N 1.5000 1.3183(3) 0.5000
C1 C 1.5415(5) 1.2560(5) 0.3724(7)
H1 H 1.5712 1.2993 0.2801
C2 C 1.5433(6) 1.1315(5) 0.3685(7)
H2 H 1.5742 1.0901 0.2753
C3 C 1.5000 1.0674(4) 0.5000
C1 C 1.4585(5) 1.2560(5) 0.6276(7)
H1 H 1.4288 1.2993 0.7199
C2 C 1.4567(6) 1.1315(5) 0.6315(7)
H2 H 1.4258 1.0901 0.7247
C1 C 1.5415(5) 0.7440(5) 0.6276(7)
H1 H 1.5712 0.7007 0.7199
C2 C 1.5433(6) 0.8685(5) 0.6315(7)
H2 H 1.5742 0.9099 0.7247
C3 C 1.5000 0.9326(4) 0.5000
C1 C 1.4585(5) 0.7440(5) 0.3724(7)
H1 H 1.4288 0.7007 0.2801
C2 C 1.4567(6) 0.8685(5) 0.3685(7)
H2 H 1.4258 0.9099 0.2753
C1 C 1.4585(5) 0.7440(5) 0.6276(7)
H1 H 1.4288 0.7007 0.7199
C2 C 1.4567(6) 0.8685(5) 0.6315(7)
H2 H 1.4258 0.9099 0.7247
C1 C 1.5415(5) 0.7440(5) 0.3724(7)
H1 H 1.5712 0.7007 0.2801
C2 C 1.5433(6) 0.8685(5) 0.3685(7)
H2 H 1.5742 0.9099 0.2753
C1 C 1.4585(5) 1.2560(5) 0.3724(7)
H1 H 1.4288 1.2993 0.2801
C2 C 1.4567(6) 1.1315(5) 0.3685(7)
H2 H 1.4258 1.0901 0.2753
C1 C 1.5415(5) 1.2560(5) 0.6276(7)
H1 H 1.5712 1.2993 0.7199
C2 C 1.5433(6) 1.1315(5) 0.6315(7)
H2 H 1.5742 1.0901 0.7247
Cu1 Cu 1.5000 1.5000 1.5000
F1 F 1.5000 1.5000 0.2086(5)
N1 N 1.5000 1.6817(3) 0.5000
N1 N 1.6817(3) 1.5000 0.5000
Si1 Si 1.5000 1.5000 2.0000
F1 F 1.5000 1.5000 1.7914(5)
F2 F 1.3929(6) 1.3929(6) 2.0000
F3 F 1.4449(7) 1.3587(5) 2.0000
F4 F 1.5000 1.349(5) 2.0000
N1 N 1.3183(3) 1.5000 1.5000
C1 C 1.2560(5) 1.4585(5) 1.3724(7)
H1 H 1.2993 1.4288 1.2801
C2 C 1.1315(5) 1.4567(6) 1.3685(7)
H2 H 1.0901 1.4258 1.2753
C3 C 1.0674(4) 1.5000 1.5000
F1 F 1.5000 1.5000 2.2086(5)
C1 C 1.2560(5) 1.5415(5) 1.6276(7)
H1 H 1.2993 1.5712 1.7199
C2 C 1.1315(5) 1.5433(6) 1.6315(7)
H2 H 1.0901 1.5742 1.7247
C1 C 0.7440(5) 1.4585(5) 1.6276(7)
H1 H 0.7007 1.4288 1.7199
C2 C 0.8685(5) 1.4567(6) 1.6315(7)
H2 H 0.9099 1.4258 1.7247
C3 C 0.9326(4) 1.5000 1.5000
C1 C 0.7440(5) 1.5415(5) 1.3724(7)
H1 H 0.7007 1.5712 1.2801
C2 C 0.8685(5) 1.5433(6) 1.3685(7)
H2 H 0.9099 1.5742 1.2753
C1 C 0.7440(5) 1.5415(5) 1.6276(7)
H1 H 0.7007 1.5712 1.7199
C2 C 0.8685(5) 1.5433(6) 1.6315(7)
H2 H 0.9099 1.5742 1.7247
C1 C 0.7440(5) 1.4585(5) 1.3724(7)
H1 H 0.7007 1.4288 1.2801
C2 C 0.8685(5) 1.4567(6) 1.3685(7)
H2 H 0.9099 1.4258 1.2753
C1 C 1.2560(5) 1.5415(5) 1.3724(7)
H1 H 1.2993 1.5712 1.2801
C2 C 1.1315(5) 1.5433(6) 1.3685(7)
H2 H 1.0901 1.5742 1.2753
C1 C 1.2560(5) 1.4585(5) 1.6276(7)
H1 H 1.2993 1.4288 1.7199
C2 C 1.1315(5) 1.4567(6) 1.6315(7)
H2 H 1.0901 1.4258 1.7247
N1 N 1.5000 1.3183(3) 1.5000
C1 C 1.5415(5) 1.2560(5) 1.3724(7)
H1 H 1.5712 1.2993 1.2801
C2 C 1.5433(6) 1.1315(5) 1.3685(7)
H2 H 1.5742 1.0901 1.2753
C3 C 1.5000 1.0674(4) 1.5000
C1 C 1.4585(5) 1.2560(5) 1.6276(7)
H1 H 1.4288 1.2993 1.7199
C2 C 1.4567(6) 1.1315(5) 1.6315(7)
H2 H 1.4258 1.0901 1.7247
C1 C 1.5415(5) 0.7440(5) 1.6276(7)
H1 H 1.5712 0.7007 1.7199
C2 C 1.5433(6) 0.8685(5) 1.6315(7)
H2 H 1.5742 0.9099 1.7247
C3 C 1.5000 0.9326(4) 1.5000
C1 C 1.4585(5) 0.7440(5) 1.3724(7)
H1 H 1.4288 0.7007 1.2801
C2 C 1.4567(6) 0.8685(5) 1.3685(7)
H2 H 1.4258 0.9099 1.2753
C1 C 1.4585(5) 0.7440(5) 1.6276(7)
H1 H 1.4288 0.7007 1.7199
C2 C 1.4567(6) 0.8685(5) 1.6315(7)
H2 H 1.4258 0.9099 1.7247
C1 C 1.5415(5) 0.7440(5) 1.3724(7)
H1 H 1.5712 0.7007 1.2801
C2 C 1.5433(6) 0.8685(5) 1.3685(7)
H2 H 1.5742 0.9099 1.2753
C1 C 1.4585(5) 1.2560(5) 1.3724(7)
H1 H 1.4288 1.2993 1.2801
C2 C 1.4567(6) 1.1315(5) 1.3685(7)
H2 H 1.4258 1.0901 1.2753
C1 C 1.5415(5) 1.2560(5) 1.6276(7)
H1 H 1.5712 1.2993 1.7199
C2 C 1.5433(6) 1.1315(5) 1.6315(7)
H2 H 1.5742 1.0901 1.7247
Cu1 Cu 1.5000 1.5000 2.5000
N1 N 1.5000 1.6817(3) 1.5000
N1 N 1.6817(3) 1.5000 1.5000
F2 F 0.6071(6) 0.3929(6) 1.0000
F3 F 0.6413(5) 0.4449(7) 1.0000
F4 F 0.651(5) 0.5000 1.0000
F2 F 0.6071(6) 0.3929(6) 2.0000
F3 F 0.6413(5) 0.4449(7) 2.0000
F4 F 0.651(5) 0.5000 2.0000
F2 F 0.6071(6) 1.3929(6) 1.0000
F3 F 0.6413(5) 1.4449(7) 1.0000
F4 F 0.651(5) 1.5000 1.0000
F2 F 0.6071(6) 1.3929(6) 2.0000
F3 F 0.6413(5) 1.4449(7) 2.0000
F4 F 0.651(5) 1.5000 2.0000
F2 F 1.6071(6) 0.3929(6) 1.0000
F3 F 1.6413(5) 0.4449(7) 1.0000
F4 F 1.651(5) 0.5000 1.0000
C1 C 1.7440(5) 0.5415(5) 0.3724(7)
H1 H 1.7007 0.5712 0.2801
C2 C 1.8685(5) 0.5433(6) 0.3685(7)
H2 H 1.9099 0.5742 0.2753
C3 C 1.9326(4) 0.5000 0.5000
C1 C 1.7440(5) 0.4585(5) 0.6276(7)
H1 H 1.7007 0.4288 0.7199
C2 C 1.8685(5) 0.4567(6) 0.6315(7)
H2 H 1.9099 0.4258 0.7247
N1 N 2.3183(3) 0.5000 0.5000
C1 C 2.2560(5) 0.5415(5) 0.6276(7)
H1 H 2.2993 0.5712 0.7199
C2 C 2.1315(5) 0.5433(6) 0.6315(7)
H2 H 2.0901 0.5742 0.7247
C3 C 2.0674(4) 0.5000 0.5000
C1 C 2.2560(5) 0.4585(5) 0.3724(7)
H1 H 2.2993 0.4288 0.2801
C2 C 2.1315(5) 0.4567(6) 0.3685(7)
H2 H 2.0901 0.4258 0.2753
C1 C 2.2560(5) 0.4585(5) 0.6276(7)
H1 H 2.2993 0.4288 0.7199
C2 C 2.1315(5) 0.4567(6) 0.6315(7)
H2 H 2.0901 0.4258 0.7247
C1 C 2.2560(5) 0.5415(5) 0.3724(7)
H1 H 2.2993 0.5712 0.2801
C2 C 2.1315(5) 0.5433(6) 0.3685(7)
H2 H 2.0901 0.5742 0.2753
C1 C 1.7440(5) 0.4585(5) 0.3724(7)
H1 H 1.7007 0.4288 0.2801
C2 C 1.8685(5) 0.4567(6) 0.3685(7)
H2 H 1.9099 0.4258 0.2753
C1 C 1.7440(5) 0.5415(5) 0.6276(7)
H1 H 1.7007 0.5712 0.7199
C2 C 1.8685(5) 0.5433(6) 0.6315(7)
H2 H 1.9099 0.5742 0.7247
Cu1 Cu 2.5000 0.5000 0.5000
F2 F 1.6071(6) 0.3929(6) 2.0000
F3 F 1.6413(5) 0.4449(7) 2.0000
F4 F 1.651(5) 0.5000 2.0000
C1 C 1.7440(5) 0.5415(5) 1.3724(7)
H1 H 1.7007 0.5712 1.2801
C2 C 1.8685(5) 0.5433(6) 1.3685(7)
H2 H 1.9099 0.5742 1.2753
C3 C 1.9326(4) 0.5000 1.5000
C1 C 1.7440(5) 0.4585(5) 1.6276(7)
H1 H 1.7007 0.4288 1.7199
C2 C 1.8685(5) 0.4567(6) 1.6315(7)
H2 H 1.9099 0.4258 1.7247
N1 N 2.3183(3) 0.5000 1.5000
C1 C 2.2560(5) 0.5415(5) 1.6276(7)
H1 H 2.2993 0.5712 1.7199
C2 C 2.1315(5) 0.5433(6) 1.6315(7)
H2 H 2.0901 0.5742 1.7247
C3 C 2.0674(4) 0.5000 1.5000
C1 C 2.2560(5) 0.4585(5) 1.3724(7)
H1 H 2.2993 0.4288 1.2801
C2 C 2.1315(5) 0.4567(6) 1.3685(7)
H2 H 2.0901 0.4258 1.2753
C1 C 2.2560(5) 0.4585(5) 1.6276(7)
H1 H 2.2993 0.4288 1.7199
C2 C 2.1315(5) 0.4567(6) 1.6315(7)
H2 H 2.0901 0.4258 1.7247
C1 C 2.2560(5) 0.5415(5) 1.3724(7)
H1 H 2.2993 0.5712 1.2801
C2 C 2.1315(5) 0.5433(6) 1.3685(7)
H2 H 2.0901 0.5742 1.2753
C1 C 1.7440(5) 0.4585(5) 1.3724(7)
H1 H 1.7007 0.4288 1.2801
C2 C 1.8685(5) 0.4567(6) 1.3685(7)
H2 H 1.9099 0.4258 1.2753
C1 C 1.7440(5) 0.5415(5) 1.6276(7)
H1 H 1.7007 0.5712 1.7199
C2 C 1.8685(5) 0.5433(6) 1.6315(7)
H2 H 1.9099 0.5742 1.7247
Cu1 Cu 2.5000 0.5000 1.5000
F2 F 1.6071(6) 1.3929(6) 1.0000
F3 F 1.6413(5) 1.4449(7) 1.0000
F4 F 1.651(5) 1.5000 1.0000
C1 C 1.7440(5) 1.5415(5) 0.3724(7)
H1 H 1.7007 1.5712 0.2801
C2 C 1.8685(5) 1.5433(6) 0.3685(7)
H2 H 1.9099 1.5742 0.2753
C3 C 1.9326(4) 1.5000 0.5000
C1 C 1.7440(5) 1.4585(5) 0.6276(7)
H1 H 1.7007 1.4288 0.7199
C2 C 1.8685(5) 1.4567(6) 0.6315(7)
H2 H 1.9099 1.4258 0.7247
N1 N 2.3183(3) 1.5000 0.5000
C1 C 2.2560(5) 1.5415(5) 0.6276(7)
H1 H 2.2993 1.5712 0.7199
C2 C 2.1315(5) 1.5433(6) 0.6315(7)
H2 H 2.0901 1.5742 0.7247
C3 C 2.0674(4) 1.5000 0.5000
C1 C 2.2560(5) 1.4585(5) 0.3724(7)
H1 H 2.2993 1.4288 0.2801
C2 C 2.1315(5) 1.4567(6) 0.3685(7)
H2 H 2.0901 1.4258 0.2753
C1 C 2.2560(5) 1.4585(5) 0.6276(7)
H1 H 2.2993 1.4288 0.7199
C2 C 2.1315(5) 1.4567(6) 0.6315(7)
H2 H 2.0901 1.4258 0.7247
C1 C 2.2560(5) 1.5415(5) 0.3724(7)
H1 H 2.2993 1.5712 0.2801
C2 C 2.1315(5) 1.5433(6) 0.3685(7)
H2 H 2.0901 1.5742 0.2753
C1 C 1.7440(5) 1.4585(5) 0.3724(7)
H1 H 1.7007 1.4288 0.2801
C2 C 1.8685(5) 1.4567(6) 0.3685(7)
H2 H 1.9099 1.4258 0.2753
C1 C 1.7440(5) 1.5415(5) 0.6276(7)
H1 H 1.7007 1.5712 0.7199
C2 C 1.8685(5) 1.5433(6) 0.6315(7)
H2 H 1.9099 1.5742 0.7247
Cu1 Cu 2.5000 1.5000 0.5000
F2 F 1.6071(6) 1.3929(6) 2.0000
F3 F 1.6413(5) 1.4449(7) 2.0000
F4 F 1.651(5) 1.5000 2.0000
C1 C 1.7440(5) 1.5415(5) 1.3724(7)
H1 H 1.7007 1.5712 1.2801
C2 C 1.8685(5) 1.5433(6) 1.3685(7)
H2 H 1.9099 1.5742 1.2753
C3 C 1.9326(4) 1.5000 1.5000
C1 C 1.7440(5) 1.4585(5) 1.6276(7)
H1 H 1.7007 1.4288 1.7199
C2 C 1.8685(5) 1.4567(6) 1.6315(7)
H2 H 1.9099 1.4258 1.7247
N1 N 2.3183(3) 1.5000 1.5000
C1 C 2.2560(5) 1.5415(5) 1.6276(7)
H1 H 2.2993 1.5712 1.7199
C2 C 2.1315(5) 1.5433(6) 1.6315(7)
H2 H 2.0901 1.5742 1.7247
C3 C 2.0674(4) 1.5000 1.5000
C1 C 2.2560(5) 1.4585(5) 1.3724(7)
H1 H 2.2993 1.4288 1.2801
C2 C 2.1315(5) 1.4567(6) 1.3685(7)
H2 H 2.0901 1.4258 1.2753
C1 C 2.2560(5) 1.4585(5) 1.6276(7)
H1 H 2.2993 1.4288 1.7199
C2 C 2.1315(5) 1.4567(6) 1.6315(7)
H2 H 2.0901 1.4258 1.7247
C1 C 2.2560(5) 1.5415(5) 1.3724(7)
H1 H 2.2993 1.5712 1.2801
C2 C 2.1315(5) 1.5433(6) 1.3685(7)
H2 H 2.0901 1.5742 1.2753
C1 C 1.7440(5) 1.4585(5) 1.3724(7)
H1 H 1.7007 1.4288 1.2801
C2 C 1.8685(5) 1.4567(6) 1.3685(7)
H2 H 1.9099 1.4258 1.2753
C1 C 1.7440(5) 1.5415(5) 1.6276(7)
H1 H 1.7007 1.5712 1.7199
C2 C 1.8685(5) 1.5433(6) 1.6315(7)
H2 H 1.9099 1.5742 1.7247
Cu1 Cu 2.5000 1.5000 1.5000
F2 F 0.3929(6) 0.6071(6) 1.0000
F3 F 0.3587(5) 0.5551(7) 1.0000
F4 F 0.349(5) 0.5000 1.0000
F2 F 0.3929(6) 0.6071(6) 2.0000
F3 F 0.3587(5) 0.5551(7) 2.0000
F4 F 0.349(5) 0.5000 2.0000
F2 F 0.3929(6) 1.6071(6) 1.0000
F3 F 0.3587(5) 1.5551(7) 1.0000
F4 F 0.349(5) 1.5000 1.0000
C1 C 0.4585(5) 1.7440(5) 0.3724(7)
H1 H 0.4288 1.7007 0.2801
C2 C 0.4567(6) 1.8685(5) 0.3685(7)
H2 H 0.4258 1.9099 0.2753
C3 C 0.5000 1.9326(4) 0.5000
C1 C 0.5415(5) 1.7440(5) 0.6276(7)
H1 H 0.5712 1.7007 0.7199
C2 C 0.5433(6) 1.8685(5) 0.6315(7)
H2 H 0.5742 1.9099 0.7247
N1 N 0.5000 2.3183(3) 0.5000
C1 C 0.4585(5) 2.2560(5) 0.6276(7)
H1 H 0.4288 2.2993 0.7199
C2 C 0.4567(6) 2.1315(5) 0.6315(7)
H2 H 0.4258 2.0901 0.7247
C3 C 0.5000 2.0674(4) 0.5000
C1 C 0.5415(5) 2.2560(5) 0.3724(7)
H1 H 0.5712 2.2993 0.2801
C2 C 0.5433(6) 2.1315(5) 0.3685(7)
H2 H 0.5742 2.0901 0.2753
C1 C 0.5415(5) 2.2560(5) 0.6276(7)
H1 H 0.5712 2.2993 0.7199
C2 C 0.5433(6) 2.1315(5) 0.6315(7)
H2 H 0.5742 2.0901 0.7247
C1 C 0.4585(5) 2.2560(5) 0.3724(7)
H1 H 0.4288 2.2993 0.2801
C2 C 0.4567(6) 2.1315(5) 0.3685(7)
H2 H 0.4258 2.0901 0.2753
C1 C 0.5415(5) 1.7440(5) 0.3724(7)
H1 H 0.5712 1.7007 0.2801
C2 C 0.5433(6) 1.8685(5) 0.3685(7)
H2 H 0.5742 1.9099 0.2753
C1 C 0.4585(5) 1.7440(5) 0.6276(7)
H1 H 0.4288 1.7007 0.7199
C2 C 0.4567(6) 1.8685(5) 0.6315(7)
H2 H 0.4258 1.9099 0.7247
Cu1 Cu 0.5000 2.5000 0.5000
F2 F 0.3929(6) 1.6071(6) 2.0000
F3 F 0.3587(5) 1.5551(7) 2.0000
F4 F 0.349(5) 1.5000 2.0000
C1 C 0.4585(5) 1.7440(5) 1.3724(7)
H1 H 0.4288 1.7007 1.2801
C2 C 0.4567(6) 1.8685(5) 1.3685(7)
H2 H 0.4258 1.9099 1.2753
C3 C 0.5000 1.9326(4) 1.5000
C1 C 0.5415(5) 1.7440(5) 1.6276(7)
H1 H 0.5712 1.7007 1.7199
C2 C 0.5433(6) 1.8685(5) 1.6315(7)
H2 H 0.5742 1.9099 1.7247
N1 N 0.5000 2.3183(3) 1.5000
C1 C 0.4585(5) 2.2560(5) 1.6276(7)
H1 H 0.4288 2.2993 1.7199
C2 C 0.4567(6) 2.1315(5) 1.6315(7)
H2 H 0.4258 2.0901 1.7247
C3 C 0.5000 2.0674(4) 1.5000
C1 C 0.5415(5) 2.2560(5) 1.3724(7)
H1 H 0.5712 2.2993 1.2801
C2 C 0.5433(6) 2.1315(5) 1.3685(7)
H2 H 0.5742 2.0901 1.2753
C1 C 0.5415(5) 2.2560(5) 1.6276(7)
H1 H 0.5712 2.2993 1.7199
C2 C 0.5433(6) 2.1315(5) 1.6315(7)
H2 H 0.5742 2.0901 1.7247
C1 C 0.4585(5) 2.2560(5) 1.3724(7)
H1 H 0.4288 2.2993 1.2801
C2 C 0.4567(6) 2.1315(5) 1.3685(7)
H2 H 0.4258 2.0901 1.2753
C1 C 0.5415(5) 1.7440(5) 1.3724(7)
H1 H 0.5712 1.7007 1.2801
C2 C 0.5433(6) 1.8685(5) 1.3685(7)
H2 H 0.5742 1.9099 1.2753
C1 C 0.4585(5) 1.7440(5) 1.6276(7)
H1 H 0.4288 1.7007 1.7199
C2 C 0.4567(6) 1.8685(5) 1.6315(7)
H2 H 0.4258 1.9099 1.7247
Cu1 Cu 0.5000 2.5000 1.5000
F2 F 1.3929(6) 0.6071(6) 1.0000
F3 F 1.3587(5) 0.5551(7) 1.0000
F4 F 1.349(5) 0.5000 1.0000
F2 F 1.3929(6) 0.6071(6) 2.0000
F3 F 1.3587(5) 0.5551(7) 2.0000
F4 F 1.349(5) 0.5000 2.0000
F2 F 1.3929(6) 1.6071(6) 1.0000
F3 F 1.3587(5) 1.5551(7) 1.0000
F4 F 1.349(5) 1.5000 1.0000
C1 C 1.4585(5) 1.7440(5) 0.3724(7)
H1 H 1.4288 1.7007 0.2801
C2 C 1.4567(6) 1.8685(5) 0.3685(7)
H2 H 1.4258 1.9099 0.2753
C3 C 1.5000 1.9326(4) 0.5000
C1 C 1.5415(5) 1.7440(5) 0.6276(7)
H1 H 1.5712 1.7007 0.7199
C2 C 1.5433(6) 1.8685(5) 0.6315(7)
H2 H 1.5742 1.9099 0.7247
N1 N 1.5000 2.3183(3) 0.5000
C1 C 1.4585(5) 2.2560(5) 0.6276(7)
H1 H 1.4288 2.2993 0.7199
C2 C 1.4567(6) 2.1315(5) 0.6315(7)
H2 H 1.4258 2.0901 0.7247
C3 C 1.5000 2.0674(4) 0.5000
C1 C 1.5415(5) 2.2560(5) 0.3724(7)
H1 H 1.5712 2.2993 0.2801
C2 C 1.5433(6) 2.1315(5) 0.3685(7)
H2 H 1.5742 2.0901 0.2753
C1 C 1.5415(5) 2.2560(5) 0.6276(7)
H1 H 1.5712 2.2993 0.7199
C2 C 1.5433(6) 2.1315(5) 0.6315(7)
H2 H 1.5742 2.0901 0.7247
C1 C 1.4585(5) 2.2560(5) 0.3724(7)
H1 H 1.4288 2.2993 0.2801
C2 C 1.4567(6) 2.1315(5) 0.3685(7)
H2 H 1.4258 2.0901 0.2753
C1 C 1.5415(5) 1.7440(5) 0.3724(7)
H1 H 1.5712 1.7007 0.2801
C2 C 1.5433(6) 1.8685(5) 0.3685(7)
H2 H 1.5742 1.9099 0.2753
C1 C 1.4585(5) 1.7440(5) 0.6276(7)
H1 H 1.4288 1.7007 0.7199
C2 C 1.4567(6) 1.8685(5) 0.6315(7)
H2 H 1.4258 1.9099 0.7247
Cu1 Cu 1.5000 2.5000 0.5000
F2 F 1.3929(6) 1.6071(6) 2.0000
F3 F 1.3587(5) 1.5551(7) 2.0000
F4 F 1.349(5) 1.5000 2.0000
C1 C 1.4585(5) 1.7440(5) 1.3724(7)
H1 H 1.4288 1.7007 1.2801
C2 C 1.4567(6) 1.8685(5) 1.3685(7)
H2 H 1.4258 1.9099 1.2753
C3 C 1.5000 1.9326(4) 1.5000
C1 C 1.5415(5) 1.7440(5) 1.6276(7)
H1 H 1.5712 1.7007 1.7199
C2 C 1.5433(6) 1.8685(5) 1.6315(7)
H2 H 1.5742 1.9099 1.7247
N1 N 1.5000 2.3183(3) 1.5000
C1 C 1.4585(5) 2.2560(5) 1.6276(7)
H1 H 1.4288 2.2993 1.7199
C2 C 1.4567(6) 2.1315(5) 1.6315(7)
H2 H 1.4258 2.0901 1.7247
C3 C 1.5000 2.0674(4) 1.5000
C1 C 1.5415(5) 2.2560(5) 1.3724(7)
H1 H 1.5712 2.2993 1.2801
C2 C 1.5433(6) 2.1315(5) 1.3685(7)
H2 H 1.5742 2.0901 1.2753
C1 C 1.5415(5) 2.2560(5) 1.6276(7)
H1 H 1.5712 2.2993 1.7199
C2 C 1.5433(6) 2.1315(5) 1.6315(7)
H2 H 1.5742 2.0901 1.7247
C1 C 1.4585(5) 2.2560(5) 1.3724(7)
H1 H 1.4288 2.2993 1.2801
C2 C 1.4567(6) 2.1315(5) 1.3685(7)
H2 H 1.4258 2.0901 1.2753
C1 C 1.5415(5) 1.7440(5) 1.3724(7)
H1 H 1.5712 1.7007 1.2801
C2 C 1.5433(6) 1.8685(5) 1.3685(7)
H2 H 1.5742 1.9099 1.2753
C1 C 1.4585(5) 1.7440(5) 1.6276(7)
H1 H 1.4288 1.7007 1.7199
C2 C 1.4567(6) 1.8685(5) 1.6315(7)
H2 H 1.4258 1.9099 1.7247
Cu1 Cu 1.5000 2.5000 1.5000
Si1 Si 0.5000 0.5000 0.0000
F2 F 0.3929(6) 0.6071(6) 0.0000
F3 F 0.4449(7) 0.6413(5) 0.0000
F4 F 0.5000 0.651(5) 0.0000
F1 F 0.5000 0.5000 -0.2086(5)
Cu1 Cu 0.5000 0.5000 -0.5000
F3 F 0.4449(7) 0.6413(5) 1.0000
F4 F 0.5000 0.651(5) 1.0000
Si1 Si 0.5000 1.5000 0.0000
F2 F 0.3929(6) 1.6071(6) 0.0000
F3 F 0.4449(7) 1.6413(5) 0.0000
F4 F 0.5000 1.651(5) 0.0000
F1 F 0.5000 1.5000 -0.2086(5)
Cu1 Cu 0.5000 1.5000 -0.5000
F3 F 0.4449(7) 1.6413(5) 1.0000
F4 F 0.5000 1.651(5) 1.0000
Si1 Si 1.5000 0.5000 0.0000
F2 F 1.3929(6) 0.6071(6) 0.0000
F3 F 1.4449(7) 0.6413(5) 0.0000
F4 F 1.5000 0.651(5) 0.0000
F1 F 1.5000 0.5000 -0.2086(5)
Cu1 Cu 1.5000 0.5000 -0.5000
F3 F 1.4449(7) 0.6413(5) 1.0000
F4 F 1.5000 0.651(5) 1.0000
Si1 Si 1.5000 1.5000 0.0000
F2 F 1.3929(6) 1.6071(6) 0.0000
F3 F 1.4449(7) 1.6413(5) 0.0000
F4 F 1.5000 1.651(5) 0.0000
F1 F 1.5000 1.5000 -0.2086(5)
Cu1 Cu 1.5000 1.5000 -0.5000
F3 F 1.4449(7) 1.6413(5) 1.0000
F4 F 1.5000 1.651(5) 1.0000
F2 F 0.6071(6) 0.3929(6) 0.0000
F3 F 0.5551(7) 0.3587(5) 0.0000
F4 F 0.5000 0.349(5) 0.0000
F3 F 0.5551(7) 0.3587(5) 1.0000
F2 F 0.6071(6) 1.3929(6) 0.0000
F3 F 0.5551(7) 1.3587(5) 0.0000
F4 F 0.5000 1.349(5) 0.0000
F3 F 0.5551(7) 1.3587(5) 1.0000
F2 F 1.6071(6) 0.3929(6) 0.0000
F3 F 1.5551(7) 0.3587(5) 0.0000
F4 F 1.5000 0.349(5) 0.0000
F3 F 1.5551(7) 0.3587(5) 1.0000
F2 F 1.6071(6) 1.3929(6) 0.0000
F3 F 1.5551(7) 1.3587(5) 0.0000
F4 F 1.5000 1.349(5) 0.0000
F3 F 1.5551(7) 1.3587(5) 1.0000
F2 F 0.6071(6) 0.6071(6) 1.0000
F3 F 0.5551(7) 0.6413(5) 1.0000
F2 F 0.6071(6) 0.6071(6) 2.0000
F3 F 0.5551(7) 0.6413(5) 2.0000
F4 F 0.5000 0.651(5) 2.0000
F2 F 0.6071(6) 1.6071(6) 1.0000
F3 F 0.5551(7) 1.6413(5) 1.0000
F2 F 0.6071(6) 1.6071(6) 2.0000
F3 F 0.5551(7) 1.6413(5) 2.0000
F4 F 0.5000 1.651(5) 2.0000
F2 F 1.6071(6) 0.6071(6) 1.0000
F3 F 1.5551(7) 0.6413(5) 1.0000
F2 F 1.6071(6) 0.6071(6) 2.0000
F3 F 1.5551(7) 0.6413(5) 2.0000
F4 F 1.5000 0.651(5) 2.0000
F2 F 1.6071(6) 1.6071(6) 1.0000
F3 F 1.5551(7) 1.6413(5) 1.0000
F2 F 1.6071(6) 1.6071(6) 2.0000
F3 F 1.5551(7) 1.6413(5) 2.0000
F4 F 1.5000 1.651(5) 2.0000
F2 F 0.3929(6) 0.3929(6) 0.0000
F3 F 0.3587(5) 0.4449(7) 0.0000
F4 F 0.349(5) 0.5000 0.0000
F3 F 0.3587(5) 0.4449(7) 1.0000
F2 F 0.3929(6) 1.3929(6) 0.0000
F3 F 0.3587(5) 1.4449(7) 0.0000
F4 F 0.349(5) 1.5000 0.0000
F3 F 0.3587(5) 1.4449(7) 1.0000
F2 F 1.3929(6) 0.3929(6) 0.0000
F3 F 1.3587(5) 0.4449(7) 0.0000
F4 F 1.349(5) 0.5000 0.0000
F3 F 1.3587(5) 0.4449(7) 1.0000
F2 F 1.3929(6) 1.3929(6) 0.0000
F3 F 1.3587(5) 1.4449(7) 0.0000
F4 F 1.349(5) 1.5000 0.0000
F3 F 1.3587(5) 1.4449(7) 1.0000
F2 F 0.6071(6) 0.6071(6) 0.0000
F3 F 0.6413(5) 0.5551(7) 0.0000
F4 F 0.651(5) 0.5000 0.0000
F3 F 0.6413(5) 0.5551(7) 1.0000
F2 F 0.6071(6) 1.6071(6) 0.0000
F3 F 0.6413(5) 1.5551(7) 0.0000
F4 F 0.651(5) 1.5000 0.0000
F3 F 0.6413(5) 1.5551(7) 1.0000
F2 F 1.6071(6) 0.6071(6) 0.0000
F3 F 1.6413(5) 0.5551(7) 0.0000
F4 F 1.651(5) 0.5000 0.0000
F3 F 1.6413(5) 0.5551(7) 1.0000
F2 F 1.6071(6) 1.6071(6) 0.0000
F3 F 1.6413(5) 1.5551(7) 0.0000
F4 F 1.651(5) 1.5000 0.0000
F3 F 1.6413(5) 1.5551(7) 1.0000
F3 F 0.5551(7) 0.6413(5) 0.0000
F3 F 0.5551(7) 1.6413(5) 0.0000
F3 F 1.5551(7) 0.6413(5) 0.0000
F3 F 1.5551(7) 1.6413(5) 0.0000
F3 F 0.3587(5) 0.5551(7) 0.0000
F3 F 0.3587(5) 1.5551(7) 0.0000
F3 F 1.3587(5) 0.5551(7) 0.0000
F3 F 1.3587(5) 1.5551(7) 0.0000
F3 F 0.6413(5) 0.4449(7) 0.0000
F3 F 0.6413(5) 1.4449(7) 0.0000
F3 F 1.6413(5) 0.4449(7) 0.0000
F3 F 1.6413(5) 1.4449(7) 0.0000
F3 F 0.5551(7) 0.3587(5) 2.0000
F3 F 0.5551(7) 1.3587(5) 2.0000
F3 F 1.5551(7) 0.3587(5) 2.0000
F3 F 1.5551(7) 1.3587(5) 2.0000
F3 F 0.4449(7) 0.6413(5) 2.0000
F3 F 0.4449(7) 1.6413(5) 2.0000
F3 F 1.4449(7) 0.6413(5) 2.0000
F3 F 1.4449(7) 1.6413(5) 2.0000
F3 F 0.4449(7) 0.3587(5) 0.0000
F3 F 0.4449(7) 1.3587(5) 0.0000
F3 F 1.4449(7) 0.3587(5) 0.0000
F3 F 1.4449(7) 1.3587(5) 0.0000
F3 F 0.6413(5) 0.5551(7) 2.0000
F3 F 0.6413(5) 1.5551(7) 2.0000
F3 F 1.6413(5) 0.5551(7) 2.0000
F3 F 1.6413(5) 1.5551(7) 2.0000
F3 F 0.3587(5) 0.4449(7) 2.0000
F3 F 0.3587(5) 1.4449(7) 2.0000
F3 F 1.3587(5) 0.4449(7) 2.0000
F3 F 1.3587(5) 1.4449(7) 2.0000
F2 F 0.3929(6) 0.3929(6) 0.0000
F3 F 0.4449(7) 0.3587(5) 0.0000
F4 F 0.5000 0.349(5) 0.0000
F2 F 0.6071(6) 0.3929(6) 0.0000
F3 F 0.6413(5) 0.4449(7) 0.0000
F4 F 0.651(5) 0.5000 0.0000
F2 F 0.3929(6) 0.6071(6) 0.0000
F3 F 0.3587(5) 0.5551(7) 0.0000
F4 F 0.349(5) 0.5000 0.0000
F3 F 0.4449(7) 0.6413(5) 0.0000
F4 F 0.5000 0.651(5) 0.0000
F3 F 0.5551(7) 0.3587(5) 0.0000
F2 F 0.6071(6) 0.6071(6) 0.0000
F3 F 0.5551(7) 0.6413(5) 0.0000
F3 F 0.3587(5) 0.4449(7) 0.0000
F3 F 0.6413(5) 0.5551(7) 0.0000
F2 F 0.3929(6) 0.3929(6) 1.0000
F3 F 0.4449(7) 0.3587(5) 1.0000
F4 F 0.5000 0.349(5) 1.0000
F2 F 0.6071(6) 0.3929(6) 1.0000
F3 F 0.6413(5) 0.4449(7) 1.0000
F4 F 0.651(5) 0.5000 1.0000
F2 F 0.3929(6) 0.6071(6) 1.0000
F3 F 0.3587(5) 0.5551(7) 1.0000
F4 F 0.349(5) 0.5000 1.0000
F3 F 0.4449(7) 0.6413(5) 1.0000
F4 F 0.5000 0.651(5) 1.0000
F3 F 0.5551(7) 0.3587(5) 1.0000
F2 F 0.6071(6) 0.6071(6) 1.0000
F3 F 0.5551(7) 0.6413(5) 1.0000
F3 F 0.3587(5) 0.4449(7) 1.0000
F3 F 0.6413(5) 0.5551(7) 1.0000
F2 F 0.3929(6) 0.3929(6) 2.0000
F3 F 0.4449(7) 0.3587(5) 2.0000
F4 F 0.5000 0.349(5) 2.0000
F2 F 0.6071(6) 0.3929(6) 2.0000
F3 F 0.6413(5) 0.4449(7) 2.0000
F4 F 0.651(5) 0.5000 2.0000
F2 F 0.3929(6) 0.6071(6) 2.0000
F3 F 0.3587(5) 0.5551(7) 2.0000
F4 F 0.349(5) 0.5000 2.0000
F3 F 0.4449(7) 0.6413(5) 2.0000
F4 F 0.5000 0.651(5) 2.0000
F3 F 0.5551(7) 0.3587(5) 2.0000
F2 F 0.6071(6) 0.6071(6) 2.0000
F3 F 0.5551(7) 0.6413(5) 2.0000
F3 F 0.3587(5) 0.4449(7) 2.0000
F3 F 0.6413(5) 0.5551(7) 2.0000
F2 F 0.3929(6) 1.3929(6) 0.0000
F3 F 0.4449(7) 1.3587(5) 0.0000
F4 F 0.5000 1.349(5) 0.0000
F2 F 0.6071(6) 1.3929(6) 0.0000
F3 F 0.6413(5) 1.4449(7) 0.0000
F4 F 0.651(5) 1.5000 0.0000
F2 F 0.3929(6) 1.6071(6) 0.0000
F3 F 0.3587(5) 1.5551(7) 0.0000
F4 F 0.349(5) 1.5000 0.0000
F3 F 0.4449(7) 1.6413(5) 0.0000
F4 F 0.5000 1.651(5) 0.0000
F3 F 0.5551(7) 1.3587(5) 0.0000
F2 F 0.6071(6) 1.6071(6) 0.0000
F3 F 0.5551(7) 1.6413(5) 0.0000
F3 F 0.3587(5) 1.4449(7) 0.0000
F3 F 0.6413(5) 1.5551(7) 0.0000
F2 F 0.3929(6) 1.3929(6) 1.0000
F3 F 0.4449(7) 1.3587(5) 1.0000
F4 F 0.5000 1.349(5) 1.0000
F2 F 0.6071(6) 1.3929(6) 1.0000
F3 F 0.6413(5) 1.4449(7) 1.0000
F4 F 0.651(5) 1.5000 1.0000
F2 F 0.3929(6) 1.6071(6) 1.0000
F3 F 0.3587(5) 1.5551(7) 1.0000
F4 F 0.349(5) 1.5000 1.0000
F3 F 0.4449(7) 1.6413(5) 1.0000
F4 F 0.5000 1.651(5) 1.0000
F3 F 0.5551(7) 1.3587(5) 1.0000
F2 F 0.6071(6) 1.6071(6) 1.0000
F3 F 0.5551(7) 1.6413(5) 1.0000
F3 F 0.3587(5) 1.4449(7) 1.0000
F3 F 0.6413(5) 1.5551(7) 1.0000
F2 F 0.3929(6) 1.3929(6) 2.0000
F3 F 0.4449(7) 1.3587(5) 2.0000
F4 F 0.5000 1.349(5) 2.0000
F2 F 0.6071(6) 1.3929(6) 2.0000
F3 F 0.6413(5) 1.4449(7) 2.0000
F4 F 0.651(5) 1.5000 2.0000
F2 F 0.3929(6) 1.6071(6) 2.0000
F3 F 0.3587(5) 1.5551(7) 2.0000
F4 F 0.349(5) 1.5000 2.0000
F3 F 0.4449(7) 1.6413(5) 2.0000
F4 F 0.5000 1.651(5) 2.0000
F3 F 0.5551(7) 1.3587(5) 2.0000
F2 F 0.6071(6) 1.6071(6) 2.0000
F3 F 0.5551(7) 1.6413(5) 2.0000
F3 F 0.3587(5) 1.4449(7) 2.0000
F3 F 0.6413(5) 1.5551(7) 2.0000
F2 F 1.3929(6) 0.3929(6) 0.0000
F3 F 1.4449(7) 0.3587(5) 0.0000
F4 F 1.5000 0.349(5) 0.0000
F2 F 1.6071(6) 0.3929(6) 0.0000
F3 F 1.6413(5) 0.4449(7) 0.0000
F4 F 1.651(5) 0.5000 0.0000
F2 F 1.3929(6) 0.6071(6) 0.0000
F3 F 1.3587(5) 0.5551(7) 0.0000
F4 F 1.349(5) 0.5000 0.0000
F3 F 1.4449(7) 0.6413(5) 0.0000
F4 F 1.5000 0.651(5) 0.0000
F3 F 1.5551(7) 0.3587(5) 0.0000
F2 F 1.6071(6) 0.6071(6) 0.0000
F3 F 1.5551(7) 0.6413(5) 0.0000
F3 F 1.3587(5) 0.4449(7) 0.0000
F3 F 1.6413(5) 0.5551(7) 0.0000
F2 F 1.3929(6) 0.3929(6) 1.0000
F3 F 1.4449(7) 0.3587(5) 1.0000
F4 F 1.5000 0.349(5) 1.0000
F2 F 1.6071(6) 0.3929(6) 1.0000
F3 F 1.6413(5) 0.4449(7) 1.0000
F4 F 1.651(5) 0.5000 1.0000
F2 F 1.3929(6) 0.6071(6) 1.0000
F3 F 1.3587(5) 0.5551(7) 1.0000
F4 F 1.349(5) 0.5000 1.0000
F3 F 1.4449(7) 0.6413(5) 1.0000
F4 F 1.5000 0.651(5) 1.0000
F3 F 1.5551(7) 0.3587(5) 1.0000
F2 F 1.6071(6) 0.6071(6) 1.0000
F3 F 1.5551(7) 0.6413(5) 1.0000
F3 F 1.3587(5) 0.4449(7) 1.0000
F3 F 1.6413(5) 0.5551(7) 1.0000
F2 F 1.3929(6) 0.3929(6) 2.0000
F3 F 1.4449(7) 0.3587(5) 2.0000
F4 F 1.5000 0.349(5) 2.0000
F2 F 1.6071(6) 0.3929(6) 2.0000
F3 F 1.6413(5) 0.4449(7) 2.0000
F4 F 1.651(5) 0.5000 2.0000
F2 F 1.3929(6) 0.6071(6) 2.0000
F3 F 1.3587(5) 0.5551(7) 2.0000
F4 F 1.349(5) 0.5000 2.0000
F3 F 1.4449(7) 0.6413(5) 2.0000
F4 F 1.5000 0.651(5) 2.0000
F3 F 1.5551(7) 0.3587(5) 2.0000
F2 F 1.6071(6) 0.6071(6) 2.0000
F3 F 1.5551(7) 0.6413(5) 2.0000
F3 F 1.3587(5) 0.4449(7) 2.0000
F3 F 1.6413(5) 0.5551(7) 2.0000
F2 F 1.3929(6) 1.3929(6) 0.0000
F3 F 1.4449(7) 1.3587(5) 0.0000
F4 F 1.5000 1.349(5) 0.0000
F2 F 1.6071(6) 1.3929(6) 0.0000
F3 F 1.6413(5) 1.4449(7) 0.0000
F4 F 1.651(5) 1.5000 0.0000
F2 F 1.3929(6) 1.6071(6) 0.0000
F3 F 1.3587(5) 1.5551(7) 0.0000
F4 F 1.349(5) 1.5000 0.0000
F3 F 1.4449(7) 1.6413(5) 0.0000
F4 F 1.5000 1.651(5) 0.0000
F3 F 1.5551(7) 1.3587(5) 0.0000
F2 F 1.6071(6) 1.6071(6) 0.0000
F3 F 1.5551(7) 1.6413(5) 0.0000
F3 F 1.3587(5) 1.4449(7) 0.0000
F3 F 1.6413(5) 1.5551(7) 0.0000
F2 F 1.3929(6) 1.3929(6) 1.0000
F3 F 1.4449(7) 1.3587(5) 1.0000
F4 F 1.5000 1.349(5) 1.0000
F2 F 1.6071(6) 1.3929(6) 1.0000
F3 F 1.6413(5) 1.4449(7) 1.0000
F4 F 1.651(5) 1.5000 1.0000
F2 F 1.3929(6) 1.6071(6) 1.0000
F3 F 1.3587(5) 1.5551(7) 1.0000
F4 F 1.349(5) 1.5000 1.0000
F3 F 1.4449(7) 1.6413(5) 1.0000
F4 F 1.5000 1.651(5) 1.0000
F3 F 1.5551(7) 1.3587(5) 1.0000
F2 F 1.6071(6) 1.6071(6) 1.0000
F3 F 1.5551(7) 1.6413(5) 1.0000
F3 F 1.3587(5) 1.4449(7) 1.0000
F3 F 1.6413(5) 1.5551(7) 1.0000
F2 F 1.3929(6) 1.3929(6) 2.0000
F3 F 1.4449(7) 1.3587(5) 2.0000
F4 F 1.5000 1.349(5) 2.0000
F2 F 1.6071(6) 1.3929(6) 2.0000
F3 F 1.6413(5) 1.4449(7) 2.0000
F4 F 1.651(5) 1.5000 2.0000
F2 F 1.3929(6) 1.6071(6) 2.0000
F3 F 1.3587(5) 1.5551(7) 2.0000
F4 F 1.349(5) 1.5000 2.0000
F3 F 1.4449(7) 1.6413(5) 2.0000
F4 F 1.5000 1.651(5) 2.0000
F3 F 1.5551(7) 1.3587(5) 2.0000
F2 F 1.6071(6) 1.6071(6) 2.0000
F3 F 1.5551(7) 1.6413(5) 2.0000
F3 F 1.3587(5) 1.4449(7) 2.0000
F3 F 1.6413(5) 1.5551(7) 2.0000

#END
