 
data_CuSIFSIX1
 
_audit_creation_method            'SHELXL-2018/3'
_shelx_SHELXL_version_number      '2018/3'
_chemical_name_systematic         ?
_chemical_name_common             ?
_chemical_melting_point           ?
_chemical_formula_moiety          ?
_chemical_formula_sum
 'C20 H16 Cu F6 N4 Si' 
_chemical_formula_weight          518.00

loop_
 _atom_type_symbol
 _atom_type_description
 _atom_type_scat_dispersion_real
 _atom_type_scat_dispersion_imag
 _atom_type_scat_source
 'C'  'C'   0.0033   0.0016
 'International Tables Vol C Tables 4.2.6.8 and 6.1.1.4'
 'H'  'H'   0.0000   0.0000
 'International Tables Vol C Tables 4.2.6.8 and 6.1.1.4'
 'Cu'  'Cu'   0.3201   1.2651
 'International Tables Vol C Tables 4.2.6.8 and 6.1.1.4'
 'F'  'F'   0.0171   0.0103
 'International Tables Vol C Tables 4.2.6.8 and 6.1.1.4'
 'N'  'N'   0.0061   0.0033
 'International Tables Vol C Tables 4.2.6.8 and 6.1.1.4'
 'Si'  'Si'   0.0817   0.0704
 'International Tables Vol C Tables 4.2.6.8 and 6.1.1.4'
 
_space_group_crystal_system       tetragonal
_space_group_IT_number            123
_space_group_name_H-M_alt         'P 4/m m m'
_space_group_name_Hall            '-P 4 2'
 
_shelx_space_group_comment
;
The symmetry employed for this shelxl refinement is uniquely defined
by the following loop, which should always be used as a source of
symmetry information in preference to the above space-group names.
They are only intended as comments.
;
 
loop_
 _space_group_symop_operation_xyz
 'x, y, z'
 '-x, -y, z'
 'x, -y, -z'
 '-x, y, -z'
 '-y, -x, -z'
 'y, x, -z'
 'y, -x, z'
 '-y, x, z'
 '-x, -y, -z'
 'x, y, -z'
 '-x, y, z'
 'x, -y, z'
 'y, x, z'
 '-y, -x, z'
 '-y, x, -z'
 'y, -x, -z'
 
_cell_length_a                    11.0993(3)
_cell_length_b                    11.0993(3)
_cell_length_c                    7.9914(4)
_cell_angle_alpha                 90
_cell_angle_beta                  90
_cell_angle_gamma                 90
_cell_volume                      984.50(7)
_cell_formula_units_Z             1
_cell_measurement_temperature     93(2)
_cell_measurement_reflns_used     ?
_cell_measurement_theta_min       ?
_cell_measurement_theta_max       ?
 
_exptl_crystal_description        ?
_exptl_crystal_colour             ?
_exptl_crystal_density_meas       ?
_exptl_crystal_density_method     ?
_exptl_crystal_density_diffrn     0.874          
_exptl_crystal_F_000              261
_exptl_transmission_factor_min    ?
_exptl_transmission_factor_max    ?
_exptl_crystal_size_max           ?
_exptl_crystal_size_mid           ?
_exptl_crystal_size_min           ?
_exptl_absorpt_coefficient_mu     0.621
_shelx_estimated_absorpt_T_min    ?
_shelx_estimated_absorpt_T_max    ?
_exptl_absorpt_correction_type    ?
_exptl_absorpt_correction_T_min   ?
_exptl_absorpt_correction_T_max   ?
_exptl_absorpt_process_details    ?
_exptl_absorpt_special_details    ?
_diffrn_ambient_temperature       93(2)
_diffrn_radiation_wavelength      0.71073
_diffrn_radiation_type            MoK\a
_diffrn_source                    ?
_diffrn_measurement_device_type   ?
_diffrn_measurement_method        ?
_diffrn_detector_area_resol_mean  ?
_diffrn_reflns_number             4070
_diffrn_reflns_av_unetI/netI      0.0175
_diffrn_reflns_av_R_equivalents   0.0214
_diffrn_reflns_limit_h_min        -14
_diffrn_reflns_limit_h_max        9
_diffrn_reflns_limit_k_min        -13
_diffrn_reflns_limit_k_max        12
_diffrn_reflns_limit_l_min        -10
_diffrn_reflns_limit_l_max        9
_diffrn_reflns_theta_min          2.595
_diffrn_reflns_theta_max          29.085
_diffrn_reflns_theta_full         25.242
_diffrn_measured_fraction_theta_max   0.924
_diffrn_measured_fraction_theta_full  0.997
_diffrn_reflns_Laue_measured_fraction_max    0.924
_diffrn_reflns_Laue_measured_fraction_full   0.997
_diffrn_reflns_point_group_measured_fraction_max   0.924
_diffrn_reflns_point_group_measured_fraction_full  0.997
_reflns_number_total              763
_reflns_number_gt                 741
_reflns_threshold_expression      'I > 2\s(I)'
_reflns_Friedel_coverage          0.000
_reflns_Friedel_fraction_max      .
_reflns_Friedel_fraction_full     .
 
_reflns_special_details
;
 Reflections were merged by SHELXL according to the crystal
 class for the calculation of statistics and refinement.
 
 _reflns_Friedel_fraction is defined as the number of unique
 Friedel pairs measured divided by the number that would be
 possible theoretically, ignoring centric projections and
 systematic absences.
;
 
_computing_data_collection        ?
_computing_cell_refinement        ?
_computing_data_reduction         ?
_computing_structure_solution     ?
_computing_structure_refinement 'SHELXL-2018/3 (Sheldrick, 2018)'
_computing_molecular_graphics     ?
_computing_publication_material   ?
_refine_special_details           ?
_refine_ls_structure_factor_coef  Fsqd
_refine_ls_matrix_type            full
_refine_ls_weighting_scheme       calc
_refine_ls_weighting_details
'w=1/[\s^2^(Fo^2^)+(0.1000P)^2^] where P=(Fo^2^+2Fc^2^)/3'
_atom_sites_solution_primary      ?
_atom_sites_solution_secondary    ?
_atom_sites_solution_hydrogens    geom
_refine_ls_hydrogen_treatment     constr
_refine_ls_extinction_method      none
_refine_ls_extinction_coef        .
_refine_ls_number_reflns          763
_refine_ls_number_parameters      38
_refine_ls_number_restraints      0
_refine_ls_R_factor_all           0.1045
_refine_ls_R_factor_gt            0.1038
_refine_ls_wR_factor_ref          0.3582
_refine_ls_wR_factor_gt           0.3579
_refine_ls_goodness_of_fit_ref    3.549
_refine_ls_restrained_S_all       3.549
_refine_ls_shift/su_max           0.037
_refine_ls_shift/su_mean          0.014
 
loop_
 _atom_site_label
 _atom_site_type_symbol
 _atom_site_fract_x
 _atom_site_fract_y
 _atom_site_fract_z
 _atom_site_U_iso_or_equiv
 _atom_site_adp_type
 _atom_site_occupancy
 _atom_site_site_symmetry_order  
 _atom_site_calc_flag
 _atom_site_refinement_flags_posn
 _atom_site_refinement_flags_adp
 _atom_site_refinement_flags_occupancy
 _atom_site_disorder_assembly
 _atom_site_disorder_group
Cu1 Cu 0.500000 0.500000 0.000000 0.0081(8) Uani 1 16 d S T P . .
F1 F 0.500000 0.500000 0.2883(9) 0.0184(15) Uani 1 8 d S T P . .
N2 N 0.500000 0.3180(6) 0.000000 0.0127(13) Uani 1 4 d S T P . .
F2 F 0.3937(4) 0.3937(4) 0.500000 0.056(3) Uani 1 4 d S T P . .
C1 C 0.500000 0.0664(7) 0.000000 0.0208(18) Uani 1 4 d S T P . .
Si1 Si 0.500000 0.500000 0.500000 0.0142(11) Uani 1 16 d S T P . .
C2 C 0.4589(10) 0.1302(9) 0.1337(10) 0.035(3) Uani 0.5 1 d . . P A -1
H1 H 0.432222 0.088647 0.230799 0.042 Uiso 0.5 1 calc R U P A -1
C3 C 0.4553(10) 0.2578(9) 0.1299(11) 0.033(3) Uani 0.5 1 d . . P A -1
H2 H 0.420744 0.300712 0.220847 0.040 Uiso 0.5 1 calc R U P A -1
 
loop_
 _atom_site_aniso_label
 _atom_site_aniso_U_11
 _atom_site_aniso_U_22
 _atom_site_aniso_U_33
 _atom_site_aniso_U_23
 _atom_site_aniso_U_13
 _atom_site_aniso_U_12
Cu1 0.0063(9) 0.0063(9) 0.0117(11) 0.000 0.000 0.000
F1 0.023(2) 0.023(2) 0.008(3) 0.000 0.000 0.000
N2 0.012(3) 0.008(3) 0.018(3) 0.000 0.000 0.000
F2 0.074(4) 0.074(4) 0.020(3) 0.000 0.000 -0.054(4)
C1 0.024(4) 0.010(4) 0.028(4) 0.000 0.000 0.000
Si1 0.0169(15) 0.0169(15) 0.0089(19) 0.000 0.000 0.000
C2 0.064(8) 0.020(5) 0.021(5) 0.000(3) 0.022(4) -0.006(4)
C3 0.063(7) 0.013(4) 0.024(4) -0.004(3) 0.022(4) -0.003(4)
 
_geom_special_details
;
 All esds (except the esd in the dihedral angle between two l.s. planes)
 are estimated using the full covariance matrix.  The cell esds are taken
 into account individually in the estimation of esds in distances, angles
 and torsion angles; correlations between esds in cell parameters are only
 used when they are defined by crystal symmetry.  An approximate (isotropic)
 treatment of cell esds is used for estimating esds involving l.s. planes.
;
 
loop_
 _geom_bond_atom_site_label_1
 _geom_bond_atom_site_label_2
 _geom_bond_distance
 _geom_bond_site_symmetry_2
 _geom_bond_publ_flag
Cu1 N2 2.020(6) 13 ?
Cu1 N2 2.020(6) 5_665 ?
Cu1 N2 2.020(6) 9_665 ?
Cu1 N2 2.020(6) . ?
Cu1 F1 2.304(7) 9_665 ?
Cu1 F1 2.304(7) . ?
F1 Si1 1.692(7) . ?
N2 C3 1.330(9) . ?
F2 Si1 1.669(6) . ?
C1 C2 1.360(9) . ?
C1 C1 1.473(16) 9_655 ?
C2 C3 1.418(14) . ?
 
loop_
 _geom_angle_atom_site_label_1
 _geom_angle_atom_site_label_2
 _geom_angle_atom_site_label_3
 _geom_angle
 _geom_angle_site_symmetry_1
 _geom_angle_site_symmetry_3
 _geom_angle_publ_flag
N2 Cu1 N2 180.0 13 5_665 ?
N2 Cu1 N2 90.0 13 9_665 ?
N2 Cu1 N2 90.0 5_665 9_665 ?
N2 Cu1 N2 90.0 13 . ?
N2 Cu1 N2 90.0 5_665 . ?
N2 Cu1 N2 180.0 9_665 . ?
N2 Cu1 F1 90.0 13 9_665 ?
N2 Cu1 F1 90.000(1) 5_665 9_665 ?
N2 Cu1 F1 90.0 9_665 9_665 ?
N2 Cu1 F1 90.0 . 9_665 ?
N2 Cu1 F1 90.0 13 . ?
N2 Cu1 F1 90.000(1) 5_665 . ?
N2 Cu1 F1 90.0 9_665 . ?
N2 Cu1 F1 90.0 . . ?
F1 Cu1 F1 180.0 9_665 . ?
Si1 F1 Cu1 180.0 . . ?
C3 N2 Cu1 120.1(4) . . ?
C2 C1 C1 121.4(5) . 9_655 ?
F2 Si1 F2 90.004(1) 9_666 11_655 ?
F2 Si1 F2 89.996(1) 9_666 3_566 ?
F2 Si1 F2 180.0 11_655 3_566 ?
F2 Si1 F2 180.0 9_666 . ?
F2 Si1 F2 90.0 11_655 . ?
F2 Si1 F2 90.0 3_566 . ?
F2 Si1 F1 90.000(1) 9_666 . ?
F2 Si1 F1 90.0 11_655 . ?
F2 Si1 F1 90.0 3_566 . ?
F2 Si1 F1 90.000(1) . . ?
F2 Si1 F1 90.000(1) 9_666 9_666 ?
F2 Si1 F1 90.0 11_655 9_666 ?
F2 Si1 F1 90.0 3_566 9_666 ?
F2 Si1 F1 90.000(1) . 9_666 ?
F1 Si1 F1 180.0 . 9_666 ?
C1 C2 C3 120.9(7) . . ?
N2 C3 C2 120.5(7) . . ?
 
loop_
 _geom_torsion_atom_site_label_1
 _geom_torsion_atom_site_label_2
 _geom_torsion_atom_site_label_3
 _geom_torsion_atom_site_label_4
 _geom_torsion
 _geom_torsion_site_symmetry_1
 _geom_torsion_site_symmetry_2
 _geom_torsion_site_symmetry_3
 _geom_torsion_site_symmetry_4
 _geom_torsion_publ_flag
C1 C1 C2 C3 -177.7(7) 9_655 . . . ?
Cu1 N2 C3 C2 -177.7(7) . . . . ?
C1 C2 C3 N2 -4.7(15) . . . . ?
 
_refine_diff_density_max    3.515
_refine_diff_density_min   -0.857
_refine_diff_density_rms    0.293

_shelx_res_file
;
TITL
    CuSIFSIX1.res
    created by SHELXL-2018/3 at 15:13:34 on 24-Nov-2023
REM  Yadorkari-X generated
CELL 0.71073 11.0993 11.0993 7.9914 90.0000 90.0000 90.0000
ZERR 1.0 0.0003 0.0003 0.0004 0.0000 0.0000 0.0000
LATT 1
SYMM -X, -Y, +Z
SYMM +X, -Y, -Z
SYMM -X, +Y, -Z
SYMM -Y, -X, -Z
SYMM +Y, +X, -Z
SYMM +Y, -X, +Z
SYMM -Y, +X, +Z
REM  SPGR P4/mmm tetragonal
SFAC C H Cu F N Si
UNIT 20 16 1 6 4 1
TEMP -180.0
L.S. 4
FMAP 2
PLAN -20
ACTA
CONF
LIST 4

WGHT    0.100000
FVAR       7.08276
CU1   3    0.500000    0.500000    0.000000    10.06250    0.00625    0.00625 =
         0.01168    0.00000    0.00000    0.00000
F1    4    0.500000    0.500000    0.288319    10.12500    0.02339    0.02339 =
         0.00849    0.00000    0.00000    0.00000
N2    5    0.500000    0.317978    0.000000    10.25000    0.01247    0.00777 =
         0.01772    0.00000    0.00000    0.00000
F2    4    0.393673    0.393673    0.500000    10.25000    0.07351    0.07351 =
         0.01957    0.00000    0.00000   -0.05414
C1    1    0.500000    0.066364    0.000000    10.25000    0.02410    0.00991 =
         0.02840    0.00000    0.00000    0.00000
SI1   6    0.500000    0.500000    0.500000    10.06250    0.01690    0.01690 =
         0.00887    0.00000    0.00000    0.00000
PART -1
C2    1    0.458887    0.130168    0.133667    10.50000    0.06378    0.01997 =
         0.02139   -0.00042    0.02180   -0.00612
AFIX  43
H1    2    0.432222    0.088647    0.230799    10.50000   -1.20000
AFIX   0
C3    1    0.455321    0.257804    0.129885    10.50000    0.06259    0.01335 =
         0.02447   -0.00416    0.02201   -0.00268
AFIX  43
H2    2    0.420744    0.300712    0.220847    10.50000   -1.20000
PART 0

AFIX   0
HKLF 4 1 1 0 0 0 1 0 0 0 1




REM
REM wR2 = 0.3582, GooF = S = 3.549, Restrained GooF = 3.549 for all data
REM R1 = 0.1038 for 741 Fo > 4sig(Fo) and 0.1045 for all 763 data
REM 38 parameters refined using 0 restraints

END

WGHT      0.2000      0.0000

REM Highest difference peak  3.515,  deepest hole -0.857,  1-sigma level  0.293
Q1    1   0.0000  0.3533  0.5000  10.25000  0.05    3.51
Q2    1   0.2257  0.2257  0.5000  10.25000  0.05    3.28
Q3    1   0.1337  0.1337  0.1599  10.50000  0.05    1.35
Q4    1   0.0000  0.2391  0.3791  10.50000  0.05    0.98
Q5    1   0.1228  0.4159  0.5000  10.50000  0.05    0.81
Q6    1   0.5000  0.3712  0.0000  10.25000  0.05    0.72
Q7    1   0.3767  0.4580  0.5000  10.50000  0.05    0.70
Q8    1   0.5000  0.2365  0.1361  10.50000  0.05    0.62
Q9    1   0.3490  0.3490  0.5000  10.25000  0.05    0.45
Q10   1   0.5000  0.5000  0.2273  10.12500  0.05    0.39
Q11   1   0.2939  0.5000  0.0671  10.50000  0.05    0.38
Q12   1   0.1569  0.1569  0.0000  10.25000  0.05    0.37
Q13   1   0.4211  0.1482  0.1165  11.00000  0.05    0.34
Q14   1   0.0937  0.2409  0.5000  10.50000  0.05    0.33
Q15   1   0.5000  0.0000  0.0000  10.12500  0.05    0.32
Q16   1   0.2420  0.3669  0.5000  10.50000  0.05    0.29
Q17   1   0.3987  0.2841  0.5000  10.50000  0.05    0.26
Q18   1   0.3622  0.5000  0.1437  10.50000  0.05    0.26
Q19   1   0.5000  0.2994  0.2175  10.50000  0.05    0.25
Q20   1   0.5000  0.2506  0.0000  10.25000  0.05    0.24
;
_shelx_res_checksum   28123

_shelx_hkl_file
;
   0   0   2 628698. 13368.7   2
   0   0   3 144865. 3174.06   2
   0   0   4 153677. 3394.34   2
   0   0   5 12393.6 412.379   2
   0   0   6 183803. 4101.16   2
   0   0   7 39753.7 1074.34   2
   0   0   8 126578. 2957.26   2
   0   0   9 3158.65 248.940   2
   1   0  -1 30146.5 674.592   1
   1   0   1 31236.0 687.117   2
  -1   0  -2 201323. 4254.78   2
   1   0   2 204417. 4254.46   2
   0  -1   3 4928.39 172.285   2
  -1   0  -3 4310.84 174.659   2
   0   1   3 4779.44 190.482   2
   1   0   3 4134.05 170.747   2
   0   1   4 147415. 3254.16   2
   0  -1   4 146106. 3220.50   2
   1   0   4 145324. 3232.63   2
   0  -1   5 5075.24 224.677   2
  -1   0   5 5312.60 246.930   2
   1   0   5 4924.19 227.662   2
   0   1   5 5013.02 245.366   2
   0   1   6 71489.0 1723.07   2
   1   0   6 70666.0 1702.70   2
   0  -1   6 72206.2 1694.53   2
  -1   0   6 69616.7 1716.31   2
   1   0   7 12330.8 450.393   2
   0  -1   7 11610.6 436.774   2
  -1   0   7 11860.9 455.572   2
   0   1   7 12328.7 465.660   2
   0  -1   8 44852.6 1186.83   2
   1   0   8 43642.0 1192.46   2
   0   1   8 45211.0 1218.26   2
  -1   0   8 43654.8 1204.89   2
  -1   0   9 231.919 134.378   2
   0   1  -9 170.120 120.508   1
   0   1   9 75.4282 131.710   2
   1   0   9 242.227 129.362   2
   0  -1   9 199.862 116.949   2
   0   1 -10 19697.4 713.183   1
   1   0 -10 19611.6 704.564   1
   1   1 -10 15492.5 609.519   1
  -1   1   9 553.559 151.960   2
   1   1  -9 688.367 152.825   1
   1  -1   9 677.889 150.269   2
   1   1  -8 7978.17 370.545   1
   1  -1   8 8580.55 370.846   2
  -1   1   8 8224.72 393.343   2
  -1   1   7 131.266 97.2586   2
   1  -1   7 351.955 104.000   2
  -1   1   6 27904.5 797.294   2
   1  -1   6 26756.5 748.819   2
   1  -1   5 414.882 73.3313   2
  -1   1   5 313.098 91.1053   2
   1  -1   4 116641. 2590.58   2
  -1  -1  -3 21379.7 567.227   2
   1  -1   3 21595.2 536.756   2
   1  -1   2 26555.6 618.489   2
   1   1  -2 27076.9 635.586   1
   1  -1   1 11907.5 271.990   2
   1   1  -1 11098.2 285.874   1
  -1  -1   0 104489. 2244.30   2
  -1   1  -1 11333.8 266.522   2
   1   1   2 25008.3 618.638   2
  -1   1  -2 25746.0 594.801   2
   1   1   3 22290.9 581.835   2
   1   1   4 119611. 2684.94   2
   1   1   5 558.905 96.8214   2
   1   1   6 27008.6 782.769   2
  -1  -1   6 28158.1 774.325   2
   1   1   7 209.947 107.072   2
  -1  -1   7 213.960 96.3397   2
  -1  -1   8 7747.80 365.307   2
   1   1   8 8484.43 389.905   2
   1   1   9 720.803 159.263   2
  -1  -1   9 402.599 136.273   2
  -1   1 -10 14810.3 604.054   1
   0  -2   0 332044. 7059.22   2
   0   2   0 332526. 7058.24   2
  -2   0   1 111901. 2211.29   1
   2   0   1 112370. 2245.10   2
   0   2   1 93821.1 2240.62   2
   2   0  -1 108488. 2211.35   1
  -2   0  -1 98102.6 2236.56   2
  -2   0  -2 56962.3 1296.78   2
   2   0   2 57680.8 1294.59   2
   2   0  -2 57588.5 1271.97   1
   2   0   3 44458.8 1039.77   2
  -2   0  -3 44586.3 1046.81   2
   0  -2   3 43777.0 1010.18   2
   0   2  -4 109321. 2417.51   1
   2   0   4 105762. 2405.08   2
   0  -2   4 105550. 2377.57   2
   0   2   4 110022. 2447.39   2
  -2   0  -4 106186. 2412.98   2
   0   2   5 978.582 119.590   2
   2   0   5 1135.84 116.793   2
   0  -2   5 928.607 94.8871   2
   0  -2   6 57109.9 1380.95   2
   0   2   6 56297.8 1446.04   2
   0   2  -6 56548.7 1418.34   1
   2   0   6 58690.9 1418.29   2
   2   0   7 14760.8 510.726   2
   0   2  -7 13701.7 507.681   1
   0   2   7 14710.5 536.331   2
   0  -2   7 14758.0 490.198   2
  -2   0   7 14647.8 529.177   2
   0   2  -8 29052.4 876.884   1
   0  -2   8 29769.8 843.507   2
   2   0  -8 28391.4 849.117   1
   0   2   8 30325.1 906.582   2
  -2   0   8 29083.3 887.492   2
   2   0   8 28520.1 858.012   2
   2   0   9 717.606 156.326   2
   2   0  -9 529.523 151.313   1
   0  -2   9 650.126 143.838   2
   0   2  -9 556.468 139.715   1
  -2   0   9 298.546 133.442   2
   0   2 -10 17029.6 642.151   1
   2   0 -10 14822.8 592.499   1
   1   2 -10 13266.1 567.589   1
   2   1 -10 14266.4 569.270   1
  -2   1   9 365.937 146.753   2
   2   1  -9 518.871 142.383   1
   1   2  -9 339.471 122.546   1
   1  -2   9 446.534 129.537   2
   2  -1   9 353.702 135.816   2
   2  -1   8 5112.91 276.987   2
   1   2  -8 4890.72 285.773   1
   1  -2   8 5132.94 271.424   2
  -2   1   8 4850.71 301.263   2
   2   1  -8 5451.85 292.290   1
  -1   2   8 4425.38 295.017   2
   1  -2   7 298.489 93.5840   2
   2  -1   7 242.245 92.3819   2
  -2   1   7 361.920 116.627   2
   1   2  -7 365.741 98.4340   1
   2   1  -7 285.597 87.0203   1
  -1   2   7 341.820 117.729   2
   2  -1   6 20452.6 603.253   2
  -1   2   6 20354.2 652.828   2
   1   2  -6 21131.9 626.713   1
   2   1  -6 20225.8 611.029   1
   1  -2   6 20721.8 588.592   2
  -1   2   5 608.637 106.072   2
   1   2  -5 649.334 92.5894   1
   2   1  -5 743.269 94.0867   1
   1  -2   5 700.299 84.9907   2
   2  -1   5 565.648 87.0229   2
  -2  -1  -4 128101. 2957.80   2
   1   2  -4 132292. 2938.24   1
   1  -2   4 131219. 2899.58   2
   2   1  -4 133726. 2925.92   1
   2  -1   4 134579. 2918.60   2
   2  -1   3 34713.1 840.680   2
   1  -2   3 35705.5 818.833   2
   2   1  -3 35644.7 848.150   1
  -2  -1  -3 35784.4 874.719   2
   1   2  -3 35709.5 861.516   1
   1  -2   2 53599.6 1170.39   2
   2  -1   2 53189.1 1198.15   2
   2   1  -2 53710.1 1202.67   1
   1   2  -2 53579.0 1216.54   1
   1  -2   1 48592.7 1077.38   1
   2   1  -1 48403.8 1072.35   1
  -1  -2  -1 47566.3 1087.75   2
  -1  -2   0 95886.3 2088.84   2
   1   2   0 97629.0 2089.50   2
  -2  -1   0 92130.6 2103.52   2
   1  -2   0 98480.9 2081.00   1
  -1   2   0 97577.4 2081.76   1
  -2  -1   1 48524.5 1070.11   1
  -1   2  -1 47399.3 1075.43   1
  -2   1  -1 48609.4 1072.00   2
  -1   2  -2 54794.9 1173.70   2
   2   1   2 51531.7 1222.64   2
  -2  -1   2 53059.5 1202.60   1
  -2   1  -2 53254.7 1198.96   2
   2   1   3 35891.3 863.350   2
  -2   1  -3 35333.7 839.827   2
   1   2   3 34235.2 868.935   2
   1   2   4 133289. 2996.64   2
   2   1   4 135263. 2987.80   2
  -2   1  -4 132602. 2958.80   2
   2   1   5 519.287 96.2529   2
   1   2   5 631.693 109.573   2
   1   2   6 19544.8 633.118   2
  -1  -2   6 20800.0 602.983   2
   2   1   6 20849.7 629.166   2
   1   2   7 315.713 126.658   2
  -2  -1   7 359.911 116.072   2
  -1  -2   7 288.735 95.2092   2
   2   1   7 335.243 117.373   2
  -2  -1   8 4819.46 294.873   2
   1   2   8 5215.53 312.021   2
  -1  -2   8 4909.31 275.069   2
   2   1   8 4698.54 288.978   2
  -1   2  -9 318.749 135.035   1
   2   1   9 266.510 139.578   2
  -2  -1   9 259.521 130.555   2
  -1  -2   9 268.203 129.356   2
   2  -1 -10 14001.9 559.931   1
   2   2 -10 11115.1 501.250   1
   2  -2   9 210.424 125.370   2
   2   2  -9-11.9818 115.983   1
  -2   2   8 1800.66 209.319   2
   2  -2   8 2146.21 179.685   2
   2   2  -8 1789.65 181.812   1
  -2   2   7 1413.56 181.707   2
   2   2  -7 1288.64 147.502   1
   2  -2   7 1484.07 143.751   2
   2   2  -6 13557.8 462.846   1
   2  -2   6 12934.4 430.253   2
   2   2  -5 1708.43 132.860   1
   2  -2   5 1577.97 116.190   2
   2   2  -4 145276. 3167.91   1
  -2  -2  -4 145339. 3204.22   2
   2  -2   4 139597. 3126.17   2
   2   2  -3 49880.7 1156.41   1
   2  -2   3 49062.4 1120.64   2
   2  -2   2 53047.5 1187.21   2
   2   2  -2 54441.9 1226.24   1
  -2  -2  -1 23731.0 583.205   2
  -2   2   0 10394.6 258.928   1
   2   2   0 9670.92 289.955   2
  -2  -2   0 10549.2 292.453   2
  -2  -2   1 24032.8 583.918   1
  -2   2  -1 25470.2 572.086   1
  -2   2  -1 23567.8 558.026   2
  -2  -2   2 52484.4 1199.03   1
  -2   2  -2 52517.0 1164.98   2
  -2   2  -3 45613.6 1068.74   2
   2   2   3 48783.1 1129.19   2
  -2   2  -4 148814. 3210.24   2
   2   2   4 142129. 3259.55   2
   2   2   5 1526.59 142.489   2
   2   2   6 13601.5 482.595   2
  -2  -2   7 1107.35 136.761   2
   2   2   7 1177.13 162.946   2
  -2  -2   8 1707.43 175.089   2
   2   2   8 1995.30 201.747   2
  -2  -2   9 11.1132 117.589   2
   0   3   0 451317. 9702.66   2
   0  -3   0 462235. 9704.98   2
   0   3   1 210389. 4514.60   2
   0  -3   1 207077. 4512.53   1
  -3   0  -1 208563. 4522.13   2
   3   0   1 209980. 4524.81   2
  -3   0   1 210780. 4471.07   1
   0  -3   2 1784.05 107.315   1
   3   0   2 2692.34 122.320   2
   3   0  -2 2347.30 91.2876   1
  -3   0  -2 2334.99 115.488   2
   0   3   2 1953.29 117.636   2
   0  -3   3 7540.98 216.597   2
   3   0  -3 7553.34 236.401   1
  -3   0  -3 7587.29 263.333   2
  -3   0  -4 2776.72 159.936   2
   3   0  -4 2957.19 142.443   1
   0  -3   4 2806.25 129.313   2
   3   0   4 3199.17 164.448   2
   0   3  -5 2423.61 165.832   1
   0  -3   5 2222.34 131.451   2
   3   0   5 2446.71 161.351   2
   0   3   5 2717.64 187.242   2
   3   0  -5 2580.27 148.538   1
  -3   0  -5 2355.37 157.698   2
   0   3   6 22219.1 696.044   2
   3   0   6 21982.1 651.093   2
   3   0  -6 22149.2 635.090   1
   0  -3   6 21925.4 612.909   2
   0   3  -6 22038.1 666.741   1
   3   0  -7 40596.9 1086.34   1
   0   3  -7 40785.6 1124.71   1
   3   0   7 43469.9 1121.71   2
   0   3   7 41342.2 1163.10   2
   0  -3   7 42924.3 1074.19   2
   3   0  -8 15941.0 555.666   1
   0  -3   8 16809.8 540.521   2
   0   3   8 16932.1 620.158   2
  -3   0   8 15526.1 596.499   2
   0   3  -8 15695.6 581.563   1
   3   0   8 17159.5 586.840   2
  -3   0   9 2690.67 254.838   2
   3   0  -9 2917.85 228.266   1
   3   0   9 2608.70 233.449   2
   0   3  -9 2719.31 239.485   1
   3   0 -10 3567.98 271.648   1
   3   1 -10 4262.72 303.489   1
   1  -3   9 45.7433 113.617   2
   3  -1   9 96.4217 132.557   2
   3   1  -9 79.2700 108.262   1
   1   3  -9-62.8748 117.174   1
   3  -1   8 3795.40 242.750   2
   3   1  -8 3695.66 241.661   1
  -3   1   8 3661.07 267.060   2
   1  -3   8 3995.20 227.830   2
   1   3  -8 3455.69 251.077   1
  -1   3   8 3068.26 260.813   2
  -1   3   7 6028.92 333.427   2
   1  -3   7 6312.91 273.396   2
   1   3  -7 6746.14 323.186   1
   3  -1   7 6219.84 293.528   2
   3   1  -7 6496.66 302.344   1
   3  -1   6 5758.34 263.354   2
  -1   3   6 5094.24 287.534   2
   1  -3   6 6119.11 242.950   2
   3   1  -6 5964.35 267.118   1
   1   3  -6 5958.11 285.430   1
  -3  -1  -5 548.444 96.3201   2
  -1   3   5 611.321 112.313   2
   3   1  -5 768.391 93.2608   1
   3  -1   5 660.128 90.7782   2
   1   3  -5 652.404 97.9035   1
   1  -3   5 693.610 75.4909   2
   3   1  -4 13811.5 398.578   1
   1  -3   4 13135.8 359.842   2
  -3  -1  -4 13389.8 428.103   2
   3  -1   4 13293.9 399.985   2
   1   3  -4 13428.6 417.560   1
   1   3  -3 14076.4 411.446   1
   1  -3   3 14152.2 344.870   2
  -3  -1  -3 14429.1 421.269   2
   3  -1   3 12846.4 386.918   2
   3   1  -3 14324.0 387.649   1
   3   1  -2 1466.11 81.7451   1
   3  -1   2 1463.63 88.7289   2
  -3  -1  -2 1357.12 96.8297   2
  -1  -3  -2 1554.64 102.140   2
   1  -3   1 416.631 47.9780   1
  -1  -3  -1 644.067 60.1565   2
  -1  -3   0 20206.8 488.192   2
   1   3   0 21524.4 492.344   2
   1  -3   0 19974.1 488.880   1
  -3  -1   1 451.183 43.0987   1
   1   3   1 502.077 55.5733   2
  -1   3  -1 425.309 48.9307   1
  -3   1  -1 407.644 51.5680   2
  -1  -3   1 449.432 37.5212   2
  -1   3  -2 1581.25 95.5026   1
  -3  -1   2 1625.77 86.6198   1
  -3   1  -2 1480.20 91.2862   2
   3   1   2 1677.19 105.445   2
   3  -1  -2 1608.14 67.5412   1
   3   1   3 13698.6 414.243   2
  -3   1  -3 14318.1 397.576   2
  -3   1  -4 13086.9 389.076   2
   3   1   4 12652.5 404.443   2
   3   1   5 563.569 100.381   2
   1   3   5 650.478 103.394   2
  -3   1  -5 562.919 87.9082   2
   3   1   6 6354.09 287.140   2
   1   3   6 5760.19 294.881   2
  -1  -3   6 5821.64 250.725   2
  -1   3  -7 6021.13 307.905   1
   1   3   7 5973.50 327.809   2
  -1  -3   7 6274.03 286.262   2
  -1  -3   8 3122.68 213.911   2
   3   1   8 4318.44 275.741   2
   1   3   8 4191.42 284.076   2
  -3  -1   8 3649.76 265.215   2
   3  -1  -8 3868.10 240.001   1
  -1   3  -8 3910.06 262.523   1
  -1  -3   9 79.3802 100.617   2
   3  -1  -9 53.1103 104.675   1
  -3  -1   9 37.3101 121.833   2
  -1   3  -9-25.7589 117.620   1
   3   1   9 74.0225 134.477   2
   3  -1 -10 4167.90 285.960   1
   3   2 -10 5279.66 331.678   1
   3  -2   9 9.96728 120.531   2
   3   2  -9 46.8028 129.969   1
   2   3  -9 24.7262 115.955   1
  -2   3   8 3662.59 275.757   2
   3  -2   8 3624.27 228.411   2
   2   3  -8 3724.75 251.640   1
   3   2  -8 3511.74 240.880   1
  -3   2   8 4058.01 287.188   2
   2  -3   8 3378.57 215.060   2
  -2   3   7 3646.35 268.681   2
   3   2  -7 3830.99 231.275   1
   2  -3   7 4056.53 212.095   2
   3  -2   7 3792.98 215.938   2
   2   3  -7 4151.00 248.318   1
   2  -3   6 7522.99 280.236   2
   2   3  -6 7564.62 328.002   1
  -2   3   6 7975.89 365.510   2
   3  -2   6 7908.33 305.159   2
   3   2  -6 7669.39 318.238   1
   3  -2   5 313.656 71.5015   2
   2  -3   5 219.478 59.9940   2
  -3  -2  -5 229.440 78.9753   2
   2   3  -5 222.033 73.9500   1
   3   2  -5 178.058 66.0784   1
  -3  -2  -4 16232.3 492.955   2
   3  -2   4 15171.3 436.588   2
   2   3  -4 15788.3 474.439   1
   3   2  -4 16499.1 465.596   1
   2  -3   4 15343.3 415.419   2
   2  -3   3 20952.7 500.563   2
   3   2  -3 21625.3 554.437   1
   2   3  -3 21331.1 567.043   1
   3  -2   3 19840.4 529.261   2
  -2  -3  -2 362.721 59.4432   2
   3   2  -2 303.107 48.2926   1
   2   3  -2 264.104 50.3146   1
  -2  -3  -1 3298.46 139.084   2
  -3  -2  -1 3043.12 141.660   2
  -3   2   0 30205.1 691.923   1
  -2  -3   0 32891.8 742.727   2
  -2   3   0 30942.0 713.856   1
   2   3   0 31457.7 740.728   2
  -3  -2   0 33818.7 760.498   2
   2  -3   0 31907.0 712.031   1
  -2   3  -1 3257.77 126.012   1
  -3  -2   1 3109.01 131.497   1
   2   3   1 3284.42 143.610   2
  -2   3  -2 316.859 47.3408   1
  -3  -2   2 333.919 47.6058   1
  -2  -3   2 267.535 48.7813   1
  -3   2  -2 321.225 45.6590   2
  -2   3  -2 317.236 30.2686   2
   3   2   3 21015.7 581.242   2
  -3  -2   3 21434.1 555.227   1
  -2   3  -3 21124.0 570.404   1
  -2  -3   3 20785.5 561.918   1
  -2   3  -3 21052.6 510.063   2
  -3   2  -3 20796.0 534.922   2
  -3   2  -4 14791.0 430.784   2
   3   2   4 15419.8 478.037   2
   2   3   4 15208.0 484.133   2
   2   3   5 104.701 87.4228   2
  -3   2  -5 139.903 60.4908   2
   3   2   5 205.693 79.8445   2
   3   2   6 7361.59 336.689   2
   2   3   6 7512.94 344.962   2
   3   2   7 4114.61 258.728   2
   2   3   7 3958.91 270.798   2
  -2  -3   7 3942.30 227.482   2
   2   3   8 3898.91 282.015   2
  -3  -2   8 3813.30 251.901   2
  -2  -3   8 3793.77 237.706   2
  -2   3  -8 3306.84 255.241   1
   3   2   8 3559.27 261.296   2
  -2  -3   9 51.5691 110.244   2
  -3  -2   9 165.096 118.915   2
  -2   3  -9-26.3443 119.469   1
   3  -2 -10 5110.11 311.137   1
   3   3  -9 1392.44 187.176   1
   3   3  -8 5457.08 312.298   1
  -3   3   8 6362.04 361.090   2
   3  -3   8 6262.73 287.206   2
  -3   3   7 2675.90 229.356   2
   3  -3   7 2735.83 180.489   2
   3   3  -7 2806.90 200.928   1
   3   3  -6 12951.7 465.367   1
   3  -3   6 14541.7 433.408   2
   3  -3   5 9639.36 309.528   2
  -3  -3  -5 9172.43 374.092   2
   3   3  -5 9462.21 352.159   1
   3  -3   4 9222.10 283.949   2
   3   3  -4 9336.93 326.937   1
   3   3  -3 9850.45 328.564   1
   3  -3   3 9804.97 281.463   2
  -3  -3  -2 756.609 87.3148   2
   3   3  -2 850.435 81.4030   1
  -3  -3  -1 3929.33 168.708   2
  -3   3   0 109871. 2354.57   1
   3   3   0 106895. 2415.90   2
  -3  -3   0 110028. 2412.79   2
   3  -3  -1 3462.02 103.622   1
  -3   3  -1 3669.15 136.600   1
  -3  -3   1 3897.97 159.659   1
  -3  -3   2 822.875 76.1873   1
  -3   3  -2 949.273 63.2336   2
  -3   3  -2 953.294 75.3316   1
  -3  -3   3 10578.0 337.268   1
  -3   3  -3 10673.6 299.554   2
  -3   3  -4 8307.53 270.616   2
   3   3   4 8780.65 336.241   2
   3   3   5 9665.55 381.034   2
   3   3   6 13855.8 501.386   2
   3   3   7 2563.28 215.957   2
   3   3   8 6687.58 358.833   2
  -3  -3   8 5803.09 308.973   2
  -3  -3   9 1377.19 183.143   2
   0   4   0 169906. 3659.93   2
   0  -4   0 170706. 3696.16   1
  -4   0  -1 69418.5 1444.29   2
   0   4  -1 66161.2 1433.14   1
  -4   0   1 66180.4 1371.91   1
   0   4   1 64166.4 1422.96   2
   0  -4   1 65210.4 1425.50   1
   0   4  -1 65509.9 1351.35   2
   0  -4   2 27818.1 695.726   1
   4   0  -2 27442.9 640.082   1
   0   4   2 27420.0 704.048   2
  -4   0  -2 27192.2 694.933   2
   4   0   2 26153.9 694.085   2
  -4   0   2 27964.3 639.716   1
   4   0  -3 91577.7 1959.24   1
   0   4   3 92795.3 2047.18   2
   4   0   3 86617.6 2009.16   2
   0  -4   3 86444.0 1913.97   2
  -4   0  -3 89476.2 2016.13   2
  -4   0  -4 20127.3 577.764   2
   0  -4   4 19700.5 494.358   2
   4   0   4 20895.2 576.287   2
   4   0  -4 20224.0 531.775   1
   4   0   5 15130.4 475.572   2
  -4   0  -5 14005.7 477.245   2
   4   0  -5 15526.8 446.214   1
   0  -4   5 14525.1 409.872   2
   4   0   6 18281.2 553.796   2
   0   4   6 16846.8 591.541   2
   0   4  -6 16231.0 552.488   1
  -4   0  -6 16351.4 552.318   2
   0  -4   6 17193.4 486.122   2
   4   0  -6 16887.3 516.953   1
   0   4   7 36689.1 1068.54   2
   4   0  -7 36038.8 985.497   1
   0  -4   7 37916.9 953.768   2
   0   4  -7 37136.7 1040.47   1
   4   0   7 38261.3 1024.08   2
   0  -4   8 11851.8 418.392   2
   4   0  -8 11794.4 448.686   1
   4   0   8 11477.6 466.279   2
   0   4  -8 11633.9 482.901   1
   0   4   8 12595.2 523.578   2
   0   4  -9 4372.35 299.464   1
   4   0  -9 4058.20 268.210   1
   4   0   9 4414.22 290.541   2
   4   0 -10 5420.29 324.888   1
   4   1 -10 7089.89 375.823   1
   4   1  -9 1176.36 169.714   1
   1   4  -9 1183.39 182.967   1
   4  -1   9 1212.17 176.112   2
   1  -4   8 4416.87 226.141   2
   4   1  -8 3767.48 244.000   1
   4  -1   8 4151.49 258.981   2
  -1   4   8 4227.51 297.701   2
   1   4  -8 3810.67 262.845   1
   1   4  -7 8498.57 377.208   1
   1  -4   7 8720.95 316.723   2
  -1   4   7 8851.32 409.765   2
   4   1  -7 8621.65 353.581   1
   4  -1   7 8583.49 359.107   2
   4  -1   6 6150.19 277.496   2
   1   4  -6 6233.21 297.965   1
   1  -4   6 5894.45 229.944   2
  -1   4   6 6124.04 325.036   2
   4   1  -6 6170.68 269.792   1
  -4  -1  -6 6002.04 301.744   2
   4  -1   5 2017.10 144.784   2
  -4  -1  -5 2033.16 156.941   2
   4   1  -5 1957.69 138.396   1
   1  -4   5 1970.69 111.045   2
   1   4  -5 1799.59 152.380   1
   4   1  -4 23593.5 620.066   1
   4  -1   4 24383.6 641.090   2
  -4  -1  -4 23431.5 665.704   2
   1  -4   4 23578.8 561.007   2
   1   4  -4 23137.2 654.959   1
  -4  -1  -3 34074.0 852.504   2
   1  -4   3 32041.2 729.622   2
  -1  -4  -3 33264.9 860.580   2
   4   1  -3 34391.2 804.716   1
  -1   4   3 32963.8 861.698   2
   4   1  -2 991.277 71.9963   1
  -1  -4  -2 718.824 81.7237   2
  -1   4   2 778.234 85.9084   2
  -4  -1  -2 1028.37 92.7070   2
   1  -4   2 901.924 86.6818   1
  -1   4   1 29684.4 692.971   2
   1  -4   1 28915.6 681.248   1
  -1  -4  -1 29628.4 689.617   2
  -1  -4   0 31973.9 733.288   2
   1  -4   0 30616.0 740.595   1
  -1  -4   1 29383.1 635.040   2
  -1   4  -1 28841.3 683.072   1
  -4  -1   1 28724.1 657.294   1
  -4   1  -1 28401.9 690.605   2
   1   4   1 27365.7 682.577   2
  -1   4  -2 880.445 79.9423   1
   1   4   2 811.229 85.9664   2
  -4   1  -2 1089.84 87.6727   2
   4   1   2 1175.74 96.1625   2
  -1  -4   2 1224.51 59.1058   2
   4  -1  -2 978.944 49.4861   1
  -4  -1   2 821.636 65.4656   1
  -1   4  -3 33826.6 869.753   1
  -4   1  -3 35065.9 859.397   2
   4   1   3 35771.3 882.675   2
   4  -1  -3 35383.4 802.971   1
   1   4   3 32717.0 886.842   2
  -4   1  -4 24264.0 654.815   2
   4  -1  -4 23909.6 602.918   1
   4   1   4 23879.7 669.633   2
   4   1   5 1907.19 153.239   2
   4  -1  -5 1903.80 128.232   1
  -1  -4   5 2081.37 125.412   2
  -4   1  -5 2017.32 148.953   2
   1   4   6 6400.03 323.395   2
  -4   1  -6 6310.78 292.998   2
   4   1   6 6455.88 303.396   2
  -1  -4   6 6772.01 260.272   2
   4  -1  -6 6057.97 260.003   1
   1   4   7 8202.33 393.728   2
   4   1   7 8792.44 379.242   2
   4  -1  -7 8737.85 342.688   1
  -1  -4   7 8464.83 324.643   2
  -1   4  -7 7518.29 370.247   1
  -1   4  -8 3988.57 274.514   1
   1   4   8 3713.13 289.917   2
   4   1   8 4179.28 277.499   2
  -1  -4   8 4405.97 235.062   2
   4  -1  -8 4422.05 249.784   1
  -1   4  -9 1018.50 177.371   1
  -4  -1   9 825.329 174.635   2
   4  -1  -9 1226.26 160.160   1
   4  -1 -10 6269.27 345.813   1
   4   2 -10 8149.97 411.059   1
   2   4  -9 485.327 141.772   1
   4   2  -9 580.964 145.130   1
   4  -2   9 742.821 150.056   2
   4   2  -8 5023.83 288.601   1
  -4   2   8 4715.77 316.020   2
  -2   4   8 4857.61 326.214   2
   4  -2   8 5321.86 276.820   2
   2   4  -8 5105.68 298.186   1
   2  -4   8 4983.15 242.689   2
   2  -4   7 5724.50 243.509   2
   4  -2   7 6204.77 281.652   2
   2   4  -7 5532.16 297.379   1
   4   2  -7 5443.22 281.701   1
  -2   4   7 5516.27 326.020   2
   4  -2   6 7621.03 300.118   2
   4   2  -6 7367.18 310.974   1
  -2   4   6 7287.86 358.972   2
   2  -4   6 7320.24 262.104   2
   2   4  -6 7156.78 326.648   1
  -4  -2  -6 7716.25 351.802   2
   2   4  -5 2505.42 172.893   1
   2  -4   5 2698.93 129.539   2
   4   2  -5 2765.00 164.602   1
   4  -2   5 2558.21 156.714   2
  -4  -2  -5 2213.59 170.919   2
   4   2  -4 26228.3 678.747   1
   2  -4   4 24459.2 597.746   2
   4  -2   4 24069.1 657.436   2
   2   4  -4 26980.4 706.902   1
  -4  -2  -4 26013.3 717.198   2
  -4  -2  -3 45220.6 1161.32   2
   4   2  -3 48235.8 1127.97   1
  -2  -4  -3 46479.7 1170.26   2
   2   4  -3 48530.9 1164.90   1
   4  -2   3 48601.0 1124.98   2
   2   4  -2 596.664 75.9452   1
  -2  -4  -2 997.923 94.4744   2
   2  -4   1 24900.4 624.266   1
  -2  -4  -1 26181.8 646.544   2
  -2  -4   0 17763.3 450.915   2
   2   4   0 16272.1 447.931   2
   2  -4   0 17802.8 433.889   1
  -4  -2   0 17201.2 477.624   2
  -2  -4   1 27645.0 640.100   2
  -4  -2   1 26645.1 655.746   1
   2   4   1 26360.8 670.562   2
  -2   4  -1 26140.4 653.858   1
   4  -2  -2 596.816 31.0960   1
  -2   4  -2 670.258 34.5441   2
  -4   2  -2 751.310 70.7201   2
   2   4   2 715.409 85.8661   2
  -2   4  -2 863.233 79.0807   1
  -4  -2   2 764.170 69.6865   1
  -2   4  -3 47383.8 1150.62   1
   4  -2  -3 48281.1 1067.92   1
   4   2   3 49348.7 1172.73   2
  -4   2  -3 49626.3 1128.63   2
  -2  -4   3 47003.1 1150.44   1
  -4  -2   3 47664.8 1124.54   1
  -4   2  -4 26053.0 669.460   2
   4   2   4 24409.8 704.537   2
  -2   4  -4 25055.4 692.914   1
  -2   4  -5 2439.38 168.195   1
   2   4   5 2360.54 189.191   2
   4   2   5 2536.86 182.843   2
  -4   2  -5 2119.44 145.563   2
   4   2   6 7506.14 338.623   2
   2   4   6 7642.39 354.304   2
  -4   2  -6 7868.94 314.102   2
  -2  -4   7 5613.15 269.331   2
   4   2   7 6277.05 323.106   2
   4  -2  -7 5966.36 270.443   1
   2   4   7 5876.50 330.960   2
   4  -2  -8 4673.10 256.168   1
   2   4   8 4870.71 311.937   2
   4   2   8 4282.85 283.763   2
  -2  -4   8 4963.71 260.934   2
  -4  -2   9 332.148 131.836   2
   4  -2  -9 442.432 120.659   1
  -2   4  -9 646.680 156.717   1
   4  -2 -10 8491.30 398.788   1
   4   3  -9 349.254 141.129   1
   3   4  -9 217.955 124.226   1
   3  -4   8 7085.71 297.045   2
   4  -3   8 7020.52 314.711   2
   4   3  -8 7305.43 353.068   1
   3   4  -8 6580.70 350.097   1
   4  -3   7 2479.00 171.040   2
   4   3  -7 2229.49 187.890   1
  -3   4   7 1999.37 214.043   2
   3   4  -7 2145.99 194.117   1
   3  -4   7 2326.92 154.836   2
  -4  -3  -6 13369.4 508.956   2
   4   3  -6 12866.2 459.339   1
   4  -3   6 13618.8 427.587   2
   3  -4   6 13557.8 402.156   2
   3   4  -6 12895.0 470.591   1
   3  -4   5 2975.26 141.332   2
   3   4  -5 3157.28 199.049   1
   4  -3   5 2727.17 157.752   2
  -4  -3  -5 3089.88 206.890   2
   4   3  -5 3208.65 192.889   1
   4  -3   4 28738.5 732.962   2
   4   3  -4 30811.5 782.887   1
   3   4  -4 29409.7 790.951   1
   3  -4   4 28538.6 697.747   2
   4   3  -3 486.764 75.6643   1
   3   4  -3 512.718 84.6702   1
  -3  -4  -2 15630.0 446.818   2
  -4  -3  -2 12714.8 421.739   2
  -3  -4  -1 4944.22 204.382   2
  -4  -3  -1 4933.60 207.933   2
  -4   3   0 66480.8 1467.19   1
  -4  -3   0 68331.1 1558.38   2
  -3  -4   0 69460.9 1542.44   2
   3  -4   0 67662.4 1490.15   1
   3   4   0 67816.3 1543.78   2
  -4  -3   1 3662.33 177.207   2
  -3  -4   1 4386.25 187.018   1
  -4   3  -1 5664.08 166.822   1
  -4  -3   1 4512.38 182.020   1
   4   3   1 3718.04 188.908   2
   3  -4  -1 4598.22 139.487   1
   3   4   1 4037.65 183.683   2
  -3   4  -1 4836.95 169.974   1
  -3  -4   1 3749.97 164.743   2
   3   4   2 14429.6 445.727   2
  -3   4  -2 14503.8 369.337   2
  -4  -3   2 16033.3 432.213   1
  -3  -4   2 15259.7 435.339   1
  -4   3  -2 14246.8 399.961   2
  -3   4  -2 15960.5 428.307   1
  -3   4  -3 622.511 76.9619   1
  -3   4  -3 674.578 53.5713   2
  -3  -4   3 653.544 78.9246   1
  -4   3  -3 552.895 63.2731   2
  -4  -3   3 527.839 68.5503   1
  -3  -4   4 29785.1 801.893   1
  -3   4  -4 31586.2 731.080   2
  -3   4  -4 29676.9 804.129   1
   4   3   4 28475.7 820.727   2
  -4   3  -4 30284.9 759.809   2
  -3   4  -5 3204.22 197.433   1
   3   4   5 3138.38 213.391   2
   4   3   5 2898.76 204.942   2
  -4   3  -5 3260.95 173.984   2
   3   4   6 12845.3 497.594   2
   4   3   6 13405.5 494.124   2
  -3   4  -6 13250.1 480.291   1
  -3   4  -7 2435.58 202.140   1
   4   3   7 2310.85 210.043   2
   3   4   7 2309.07 212.832   2
   4   3   8 7597.42 385.376   2
  -3   4  -8 6743.21 364.930   1
  -3  -4   8 6915.36 326.547   2
  -4  -3   9 326.376 132.655   2
  -4   3  -9 423.396 145.448   1
   4  -3  -9 341.491 121.853   1
   4   4  -9 153.260 134.484   1
   4   4  -8 11071.1 466.476   1
   4  -4   7 2576.99 166.107   2
   4   4  -7 2290.18 198.868   1
   4   4  -6 19311.4 624.965   1
  -4  -4  -6 19681.8 667.808   2
   4  -4   6 20052.1 554.474   2
   4  -4   5 702.743 82.2042   2
   4   4  -5 615.591 111.009   1
   4   4  -4 44213.2 1116.32   1
   4   4  -3 1278.40 117.404   1
  -4  -4  -3 1076.01 118.431   2
  -4  -4  -2 35000.2 902.113   2
  -4  -4  -1 1940.68 130.960   2
  -4   4   0 181337. 3912.40   1
  -4  -4   0 184631. 3995.09   2
  -4  -4   1 2092.60 127.814   2
  -4   4  -1 2166.26 104.755   1
   4  -4  -1 2175.31 73.0026   1
   4   4   1 1893.98 128.822   2
   4   4   2 33989.4 890.503   2
  -4   4  -2 34384.9 819.673   2
  -4   4  -2 34994.7 847.053   1
  -4  -4   2 35528.2 874.474   1
  -4   4  -3 1204.14 104.208   1
  -4   4  -3 1374.44 85.9188   2
  -4  -4   4 43823.3 1099.52   1
  -4   4  -4 44699.2 1040.90   2
  -4   4  -4 43226.8 1105.86   1
  -4   4  -5 744.766 108.842   1
  -4   4  -5 645.576 80.9381   2
   4   4   5 604.886 124.318   2
   4   4   6 19688.5 657.389   2
  -4   4  -6 20224.4 644.257   1
  -4   4  -7 2240.62 202.834   1
   4   4   7 2386.81 218.483   2
  -4   4  -8 11326.5 485.706   1
  -4   4  -9-13.7976 118.897   1
   0   5   0 139464. 2986.12   2
   0  -5   0 134714. 3024.42   1
  -5   0   1 270121. 5665.73   1
   0   5   1 270075. 5720.73   2
   0  -5   1 266329. 5732.88   1
   0   5  -1 259791. 5645.72   2
  -5   0  -1 264363. 5748.18   2
   0  -5   2 7636.04 280.794   1
  -5   0   2 7815.94 228.645   1
   0   5   2 7334.74 283.064   2
   0   5  -2 8056.48 288.993   1
   0   5   3 98508.2 2221.87   2
   5   0  -3 97416.2 2124.70   1
   0  -5   3 98107.7 2195.75   1
  -5   0  -3 98266.0 2204.18   2
   5   0   3 98409.3 2203.59   2
   0   5   4 25902.7 753.427   2
   0  -5   4 25379.0 604.938   2
  -5   0  -4 27092.8 731.707   2
   5   0   4 28651.6 737.609   2
   5   0  -4 27399.0 668.254   1
  -5   0  -5 33178.4 881.916   2
   5   0   5 32534.6 866.505   2
   5   0  -5 31567.5 807.616   1
   0  -5   5 31330.4 752.904   2
  -5   0  -6 27453.8 806.891   2
   5   0  -6 27378.2 741.985   1
   5   0   6 28224.8 794.013   2
   0  -5   6 27328.4 690.354   2
   0  -5   7 52141.5 1238.96   2
  -5   0  -7 52595.6 1368.76   2
   0   5   7 51850.3 1409.45   2
   5   0  -7 52171.6 1295.59   1
   0   5  -7 49228.9 1355.26   1
   5   0   7 52814.3 1345.71   2
   5   0  -8 15194.0 519.736   1
   5   0   8 15231.0 558.583   2
   0   5  -8 15253.0 577.048   1
   0   5  -9 6463.06 370.102   1
   5   0  -9 6164.18 320.433   1
   5   0 -10 5894.37 328.218   1
   5   1 -10 7487.99 381.297   1
   5   1  -9 3243.07 244.435   1
   1   5  -9 3629.27 281.854   1
   5   1  -8 8800.29 376.710   1
   1   5  -8 8471.29 412.317   1
   5   1  -7 19574.3 604.790   1
  -5  -1  -7 19338.8 661.317   2
  -1   5   7 18896.1 687.543   2
   1  -5   7 19345.8 536.776   2
   5  -1   7 20377.1 627.874   2
   1   5  -7 19083.0 647.368   1
   1  -5   6 10840.6 322.433   2
   1   5  -6 10060.2 415.809   1
   5  -1   6 10958.4 402.871   2
  -5  -1  -6 11192.3 438.627   2
   5   1  -6 10792.0 382.658   1
   5   1  -5 8971.93 316.528   1
   1   5  -5 8751.87 359.331   1
   5  -1   5 9361.78 341.201   2
  -5  -1  -5 8601.38 357.823   2
   1  -5   5 8442.02 246.850   2
   5  -1   4 22237.6 602.774   2
   5   1  -4 22906.5 575.336   1
  -1   5   4 22114.7 647.225   2
  -5  -1  -4 22656.9 630.740   2
  -1   5   3 50906.1 1234.14   2
  -5  -1  -3 51293.8 1221.90   2
   5   1  -3 49057.6 1153.95   1
   5  -1   3 47602.7 1191.15   2
  -1  -5  -2 6908.05 262.152   2
  -5  -1  -2 6793.88 265.164   2
  -1   5   2 6097.48 252.375   2
   1  -5   2 6963.27 249.287   1
  -1   5   1 71947.2 1633.68   2
   1  -5   1 73469.1 1629.88   1
  -5   1   1 70174.4 1547.39   1
  -1  -5  -1 75244.0 1638.28   2
   1  -5   0 125946. 2733.48   1
   1   5   0 126258. 2716.73   2
  -1  -5   0 122231. 2714.29   2
  -1   5   0 123202. 2705.39   2
  -1  -5   1 73476.5 1650.35   1
  -1   5  -1 74165.0 1639.74   1
   1   5   1 73495.5 1633.18   2
  -5  -1   1 70631.5 1599.63   1
  -1   5  -1 69073.0 1549.29   2
  -1  -5   1 72872.6 1575.20   2
  -5   1  -1 75424.7 1657.99   2
   1   5   2 6678.18 259.432   2
  -1  -5   2 6998.15 184.490   2
  -5   1  -2 6959.17 254.291   2
  -1  -5   2 6340.75 250.436   1
   5   1   2 6990.34 269.317   2
  -5  -1   2 6338.48 216.225   1
  -1   5  -2 6732.89 257.391   1
  -1   5  -3 49571.7 1195.23   1
  -5   1  -3 49171.7 1186.24   2
  -5  -1   3 49197.3 1142.70   1
   1   5   3 48944.2 1212.41   2
   5  -1  -3 49279.8 1105.33   1
   5   1   3 47956.6 1204.76   2
   5  -1  -4 22045.2 561.402   1
  -5   1  -4 23216.4 634.981   2
   5   1   4 22365.4 647.345   2
   1   5   4 21793.1 660.333   2
  -1   5  -4 22361.5 644.617   1
   5  -1  -5 8427.21 290.461   1
  -1  -5   5 8983.76 275.444   2
  -5   1  -5 8745.14 338.903   2
   5   1   5 9310.86 358.380   2
   5   1   6 11424.3 428.519   2
  -5   1  -6 10442.2 408.003   2
   5  -1  -6 11087.6 368.359   1
  -1  -5   6 10800.0 346.748   2
   1   5   7 20155.7 692.532   2
  -5   1  -7 19865.6 648.960   2
  -1  -5   7 19758.3 565.285   2
   5   1   7 19325.7 647.570   2
   5  -1  -7 19820.1 591.224   1
   5   1   8 9328.26 415.778   2
   5  -1  -8 8695.71 356.141   1
   5  -1  -9 3803.89 246.206   1
  -1   5  -9 3666.49 284.658   1
   5   2 -10 9950.04 453.804   1
   2   5  -9 2192.84 227.443   1
   5   2  -9 1959.74 201.808   1
   2   5  -8 11447.0 494.486   1
   5  -2   8 12597.2 467.026   2
   5   2  -8 12829.4 477.367   1
   2   5  -7 12734.7 484.920   1
  -2   5   7 11694.9 513.373   2
   2  -5   7 12061.3 374.859   2
  -5  -2  -7 12456.3 502.147   2
   5  -2   7 11781.3 436.603   2
   5   2  -7 11922.1 442.268   1
   2   5  -6 18104.9 595.158   1
   5  -2   6 18447.6 560.180   2
   5   2  -6 18245.0 562.135   1
   2  -5   6 17879.6 478.236   2
  -5  -2  -6 18261.4 622.673   2
  -2   5   5 2285.34 190.914   2
   2  -5   5 2019.52 98.3746   2
   5  -2   5 2237.92 153.120   2
   5   2  -5 2501.17 160.585   1
   2   5  -5 2427.20 181.620   1
  -5  -2  -5 2563.24 191.568   2
  -2   5   4 44749.9 1186.20   2
   5   2  -4 46336.4 1121.28   1
  -5  -2  -4 45910.6 1175.50   2
   2   5  -4 46283.9 1166.50   1
   5  -2   4 47672.3 1131.74   2
  -2  -5  -4 44266.9 1177.91   2
  -2  -5  -3 27969.5 759.104   2
   2   5  -3 27052.8 739.140   1
  -5  -2  -3 27232.9 746.829   2
   5   2  -3 26877.8 701.576   1
  -2  -5  -2 37716.7 946.865   2
  -2  -5  -1 17011.7 474.792   2
   2  -5   1 16896.9 457.955   1
   2   5   0 184771. 3966.10   2
  -2  -5   0 180761. 3963.53   2
  -5  -2   0 187025. 4018.82   2
   2  -5   0 179593. 3954.87   1
   2   5   1 16537.0 474.618   2
  -2   5  -1 16883.3 463.438   1
  -5  -2   1 17011.4 459.142   1
  -2  -5   1 17543.1 438.986   2
  -2  -5   2 39170.1 882.873   2
  -2   5  -2 39408.2 941.291   1
  -5   2  -2 39534.7 933.848   2
   2   5   2 37671.8 953.938   2
  -5  -2   2 37858.2 911.001   1
  -5  -2   3 27548.1 694.410   1
   2   5   3 26912.8 742.902   2
   5  -2  -3 27259.7 622.739   1
   5   2   3 26097.4 741.681   2
  -2   5  -3 27573.8 724.784   1
  -5   2  -3 27169.7 706.247   2
  -2  -5   4 45996.9 1161.65   1
  -5   2  -4 48177.8 1142.58   2
   2   5   4 45494.1 1186.52   2
   5  -2  -4 45615.0 1062.31   1
  -2   5  -4 46233.9 1166.38   1
   5   2   4 47958.1 1185.00   2
  -5   2  -5 2505.73 165.186   2
   5  -2  -5 2568.13 136.587   1
  -2   5  -5 2551.24 177.894   1
   5   2   5 2342.39 190.339   2
   5  -2  -6 18548.1 526.107   1
  -2   5  -6 17999.1 605.320   1
   5   2   6 18710.3 614.729   2
  -5   2  -6 18273.8 579.305   2
  -2   5  -7 11350.2 477.639   1
   2   5   7 12165.3 509.382   2
   5   2   7 12060.3 488.782   2
   5  -2  -7 12625.2 419.811   1
   5   2   8 11694.8 497.372   2
   5  -2  -8 12154.4 434.675   1
   5  -2  -9 2035.64 187.170   1
   3   5  -9-26.9060 120.304   1
   5   3  -9 85.6195 124.025   1
   3   5  -8 14396.5 561.142   1
   5  -3   8 14338.7 501.428   2
   5   3  -8 14951.7 546.132   1
  -5  -3  -7 4351.62 288.170   2
   3  -5   7 4965.83 210.407   2
   5  -3   7 5165.19 255.450   2
   3   5  -7 4592.08 281.978   1
   5   3  -7 4944.47 279.794   1
   3  -5   6 29043.3 717.160   2
   5  -3   6 29104.4 781.245   2
  -5  -3  -6 28104.4 869.618   2
   5   3  -6 28702.8 813.932   1
   3   5  -6 28967.0 845.378   1
  -5  -3  -5 281.282 101.247   2
   5  -3   5 262.030 80.5149   2
   3   5  -5 336.402 97.7779   1
   5   3  -5 332.112 89.1253   1
   3  -5   5 303.434 53.5835   2
  -5  -3  -4 42077.5 1118.03   2
   5   3  -4 43291.6 1074.01   1
   3   5  -4 42180.8 1099.15   1
  -3  -5  -4 43450.0 1132.56   2
  -3  -5  -3 706.960 102.644   2
   3   5  -3 970.478 104.044   1
  -3  -5  -2 27017.0 730.508   2
  -3  -5  -1 3036.97 160.002   2
  -5  -3  -1 2924.57 165.996   2
   3  -5   1 2731.01 132.295   1
  -3  -5   0 164727. 3579.09   2
  -5   3   0 164125. 3495.79   1
   3  -5   0 160933. 3539.83   1
  -5  -3   0 166703. 3616.93   2
   3   5   0 160908. 3582.91   2
  -5  -3   1 2949.56 165.941   2
   3  -5  -1 2864.38 117.023   1
   5   3   1 2937.72 168.437   2
  -3  -5   1 3058.25 140.952   2
  -5  -3   1 3061.95 150.527   1
   3   5   1 2991.34 157.312   2
  -3   5  -1 2789.27 135.138   1
   3   5   2 26345.3 711.794   2
  -3   5  -2 26650.7 684.223   1
  -3   5  -2 25944.7 604.154   2
  -5   3  -2 26001.4 674.303   2
  -3  -5   2 27183.4 660.648   2
  -5  -3   2 26680.8 681.756   1
  -3  -5   2 26413.2 701.569   1
  -3   5  -3 911.931 51.5373   2
  -3   5  -3 999.632 100.118   1
  -5   3  -3 1030.71 91.0356   2
   5  -3  -3 887.870 45.6980   1
  -5  -3   3 968.352 91.8124   1
   3   5   3 1081.53 115.019   2
  -3  -5   3 869.692 97.0530   1
  -3  -5   4 43918.2 1091.03   1
   5  -3  -4 42930.8 980.987   1
   3   5   4 40016.1 1109.18   2
  -5   3  -4 44405.5 1053.91   2
  -5  -3   4 42243.9 1063.21   1
  -3   5  -4 42430.8 1090.88   1
   5   3   4 43778.3 1122.38   2
  -5   3  -5 365.447 82.8530   2
   5  -3  -5 297.945 64.4525   1
  -3   5  -5 534.419 102.064   1
   5   3   5 407.533 113.981   2
   3   5   6 26969.1 858.804   2
  -3   5  -6 29236.2 844.085   1
  -5   3  -6 29867.9 799.093   2
   5  -3  -6 28787.3 744.756   1
   5   3   6 28684.0 858.923   2
  -3   5  -7 4404.48 274.112   1
   3   5   7 4770.47 304.791   2
   5   3   7 4772.75 292.012   2
   5  -3  -7 4612.27 224.104   1
  -3   5  -8 14720.3 571.722   1
   5  -3  -8 14215.5 480.362   1
  -3   5  -9 84.8055 126.409   1
   5   4  -9 51.0790 124.346   1
   4   5  -9-40.5697 143.817   1
   5   4  -8 20488.6 688.424   1
   4   5  -8 19609.5 688.716   1
  -5  -4  -7 3713.78 280.266   2
   5   4  -7 4370.97 265.207   1
   4   5  -7 3645.95 252.954   1
   5  -4   7 4437.74 228.019   2
   4  -5   7 4255.74 201.047   2
  -5  -4  -6 36701.1 1061.43   2
   4   5  -6 36533.6 1022.69   1
   5   4  -6 36792.3 1010.34   1
   5  -4   6 37143.6 941.721   2
   4  -5   6 37022.6 904.751   2
  -5  -4  -5 807.742 138.079   2
   5   4  -5 601.556 112.146   1
   4   5  -5 620.476 120.072   1
  -4  -5  -4 69200.2 1727.91   2
   4   5  -4 71961.8 1708.10   1
   5   4  -4 70685.0 1690.94   1
  -4  -5  -3 4306.35 230.857   2
  -5  -4  -3 4016.23 229.448   2
  -5  -4  -2 60845.6 1471.59   2
  -4  -5  -2 60568.4 1466.22   2
  -4  -5  -1 4231.76 208.570   2
  -5  -4  -1 4874.83 227.096   2
  -4  -5   0 145195. 3240.73   2
   4   5   0 144921. 3250.03   2
  -5   4   0 146010. 3145.43   1
  -5  -4   0 149995. 3260.83   2
  -4  -5   1 4471.32 206.995   1
  -5  -4   1 4631.36 213.064   2
   5   4   1 4686.95 224.115   2
  -5  -4   1 4522.02 202.431   1
  -5   4  -1 4155.83 158.933   1
  -4  -5   1 4590.96 198.291   2
   4  -5  -1 4437.20 142.437   1
  -4   5  -1 4655.11 175.910   1
   4   5   1 4533.04 213.177   2
  -4   5  -2 59239.7 1386.17   1
  -5   4  -2 61235.4 1376.61   1
   4  -5  -2 56630.3 1313.43   1
  -4   5  -2 61022.4 1337.88   2
   4   5   2 60002.8 1439.22   2
  -5   4  -2 61192.8 1374.71   2
  -5  -4   2 59517.8 1405.86   1
   5   4   2 59393.8 1444.10   2
  -4  -5   2 60453.3 1392.45   2
  -4  -5   2 58594.1 1417.80   1
  -4   5  -3 4169.76 200.350   1
  -5   4  -3 4416.19 201.631   1
  -4   5  -3 4290.17 152.403   2
  -5  -4   3 4259.40 202.209   1
  -4  -5   3 4007.04 206.753   1
  -5   4  -3 4357.74 179.775   2
   4   5   3 4326.33 229.014   2
  -5   4  -4 70864.5 1663.84   2
  -4   5  -4 74413.7 1627.00   2
  -4   5  -4 73254.7 1730.67   1
  -4  -5   4 72124.8 1727.63   1
  -5  -4   4 71627.8 1712.31   1
  -5   4  -5 691.594 91.4528   2
   5   4   5 774.584 133.779   2
  -4   5  -5 694.872 107.311   1
  -4   5  -6 37042.6 1027.65   1
   4   5   6 36389.5 1056.89   2
   5   4   6 37522.4 1061.05   2
  -5   4  -6 37935.1 962.481   2
   5   4   7 3938.09 276.703   2
  -4   5  -7 3930.35 263.448   1
   4   5   7 3746.28 280.133   2
  -5   4  -7 3676.02 253.846   1
  -4   5  -8 20289.7 713.248   1
   5  -4  -8 20765.9 623.031   1
  -5   4  -8 20634.8 716.456   1
   5   5  -9 341.916 138.868   1
   5   5  -8 23232.8 773.436   1
  -5  -5  -7 7677.07 407.488   2
   5   5  -7 7805.23 373.993   1
   5   5  -6 46991.1 1248.92   1
   5   5  -5 1428.21 156.019   1
  -5  -5  -4 78390.5 1915.29   2
  -5  -5  -3 12180.3 442.241   2
  -5  -5  -2 88985.5 2084.90   2
  -5  -5  -1 7693.83 309.725   2
  -5  -5   0 191974. 4231.97   2
  -5  -5   1 8146.08 305.447   1
  -5  -5   1 8538.81 305.417   2
   5   5   1 8585.97 326.762   2
   5   5   2 83953.9 1853.29   2
  -5   5  -2 88659.0 1776.93   1
  -5   5  -2 86221.6 1750.20   2
  -5  -5   2 86015.5 1821.20   1
  -5  -5   2 85593.9 1807.60   2
  -5  -5   3 13295.6 440.952   1
  -5   5  -3 14203.2 388.910   2
   5   5   3 14071.8 479.758   2
  -5   5  -3 13264.4 428.591   1
  -5  -5   4 80099.1 1929.06   1
  -5   5  -4 81189.6 1926.02   1
  -5   5  -4 83390.3 1849.01   2
  -5   5  -5 1777.32 160.297   1
  -5   5  -5 1432.87 112.100   2
  -5   5  -6 45524.1 1219.82   1
   5   5   6 46891.9 1271.85   2
  -5   5  -7 7638.89 372.865   1
  -5   5  -8 23109.2 779.415   1
   0  -6   0 59735.4 1391.79   1
   0   6   0 58825.5 1339.08   2
  -6   0   1 37466.4 869.301   1
  -6   0  -1 39337.9 965.944   2
   0   6   1 36811.0 919.648   2
   0   6  -1 38183.2 850.541   2
   0  -6   1 37188.7 938.905   1
   0   6   2 24613.4 672.688   2
  -6   0   2 24596.4 591.464   1
  -6   0  -2 25006.4 682.692   2
   0   6  -2 24926.2 679.944   1
   0  -6   2 24849.4 667.969   1
   0  -6   3 70098.5 1672.51   1
  -6   0  -3 71027.6 1680.44   2
   0   6   3 71090.6 1692.13   2
   0   6  -3 70324.8 1685.22   1
   6   0   3 71764.5 1690.93   2
  -6   0  -4 64349.3 1509.40   2
   0   6   4 62552.9 1533.15   2
   6   0  -4 61120.8 1413.83   1
   6   0   4 63632.5 1504.67   2
   6   0   5 19266.4 607.238   2
  -6   0  -5 19346.8 614.562   2
   0   6   5 19607.6 643.848   2
   6   0  -5 19831.2 543.478   1
   0  -6   6 27454.8 660.572   2
  -6   0  -6 26947.6 810.706   2
   6   0  -6 27940.6 738.605   1
   6   0   6 28623.0 809.783   2
   0   6   6 25817.4 841.008   2
  -6   0  -7 14644.6 546.957   2
   6   0  -7 14627.3 479.275   1
   6   0   7 14627.4 532.918   2
   0  -6   7 14970.6 416.311   2
   0   6  -8 7152.87 379.567   1
   6   0   8 7742.07 372.100   2
   6   0  -8 6773.72 315.288   1
   6   0  -9 771.942 139.905   1
   6   1  -9 355.576 130.594   1
   1   6  -9 393.029 149.485   1
   6   1  -8 3914.73 239.683   1
   6  -1   8 3733.78 257.142   2
   1   6  -8 3712.07 270.635   1
  -6  -1  -8 3493.82 274.719   2
   1   6  -7 4377.28 279.605   1
   1  -6   7 5150.83 190.465   2
  -6  -1  -7 4837.10 301.278   2
   6  -1   7 4862.88 274.489   2
   6   1  -7 5006.65 255.481   1
   6  -1   6 8904.26 364.542   2
  -6  -1  -6 8362.65 379.438   2
  -1   6   6 8614.54 403.100   2
   1   6  -6 8600.69 376.678   1
   6   1  -6 8470.32 327.950   1
   1  -6   6 8542.09 243.717   2
  -1   6   5 3085.15 219.186   2
  -6  -1  -5 3396.19 222.041   2
   6   1  -5 3132.10 178.061   1
   6  -1   5 3245.31 202.653   2
   6   1  -4 34285.1 888.997   1
  -6  -1  -4 36796.3 973.612   2
  -1   6   4 35803.0 979.857   2
   6  -1   4 37881.4 950.433   2
   1  -6   3 32043.2 840.136   1
  -1   6   3 30895.9 859.861   2
  -6  -1  -3 32986.8 862.840   2
  -1   6   2 12685.4 406.082   2
   1   6  -2 11294.9 400.906   1
  -6  -1  -2 12888.8 417.843   2
   1  -6   2 12608.2 396.838   1
  -1  -6  -2 12921.3 406.176   2
  -1  -6  -1 2730.79 144.296   2
  -1   6   1 2464.77 136.060   2
   1  -6   1 2602.47 144.414   1
  -6   1   1 2386.46 86.9891   1
   1   6  -1 2715.32 110.365   2
  -1   6   0 31572.6 765.283   2
   1  -6   0 32276.4 801.934   1
  -1  -6   0 32501.0 825.281   1
   1   6   0 31323.1 775.902   2
  -1  -6   0 33122.5 779.348   2
  -1   6  -1 2604.75 91.9834   2
  -1  -6   1 2918.33 160.282   1
  -1  -6   1 2591.25 108.948   2
   1   6   1 2556.78 140.787   2
  -6   1  -1 2583.97 155.131   2
  -6  -1   2 12319.1 351.758   1
  -1  -6   2 12496.6 309.434   2
  -1  -6   2 12856.1 406.105   1
  -6   1  -2 13114.4 410.486   2
   1   6   2 12697.9 409.406   2
  -1   6  -2 12918.3 407.079   1
  -1  -6   3 28912.2 677.029   2
   1   6   3 31081.0 827.198   2
  -6   1  -3 32338.3 814.315   2
  -1  -6   3 29010.1 805.533   1
  -6  -1   3 32004.4 749.404   1
  -1   6  -3 32040.0 820.263   1
   6   1   3 31840.6 834.902   2
  -1  -6   4 35493.1 808.510   2
   1   6   4 35694.8 971.628   2
  -6   1  -4 35592.2 937.181   2
  -1   6  -4 35314.3 947.849   1
   6  -1  -4 36503.8 848.759   1
   6   1   4 36116.5 957.505   2
   6  -1  -5 3250.44 155.910   1
  -6   1  -5 3076.88 198.087   2
  -1   6  -5 3414.35 219.018   1
   1   6   5 3139.07 220.005   2
  -1  -6   5 3138.00 130.316   2
   6   1   5 2994.73 207.564   2
  -6   1  -6 9269.74 377.820   2
  -1  -6   6 8748.30 278.122   2
   6  -1  -6 9261.58 317.040   1
   6   1   6 8909.65 382.667   2
   6  -1  -7 4991.98 239.020   1
   6   1   7 4864.87 290.841   2
  -1  -6   7 4908.32 206.399   2
  -6   1  -7 5215.56 293.345   2
   6   1   8 4353.31 292.179   2
   6  -1  -8 3791.11 228.037   1
   6   2  -9 450.363 133.743   1
   2   6  -9 355.252 147.508   1
  -6  -2  -8 5988.52 363.804   2
   2   6  -8 5549.61 335.757   1
   6  -2   8 6171.56 316.725   2
   6   2  -8 6137.21 313.707   1
  -6  -2  -7 2863.40 231.527   2
   2  -6   7 2835.36 134.762   2
   6  -2   7 2903.96 207.171   2
   6   2  -7 2858.85 201.314   1
   2   6  -7 2641.04 224.804   1
  -6  -2  -6 12530.5 495.239   2
   6   2  -6 13158.0 446.475   1
  -2   6   6 12186.3 513.759   2
   6  -2   6 13639.1 459.911   2
   2  -6   6 12600.8 333.695   2
   2   6  -6 12943.7 490.227   1
   6   2  -5 788.559 104.761   1
  -6  -2  -5 940.252 134.754   2
   6  -2   5 868.096 127.308   2
   2   6  -5 949.802 137.345   1
  -2   6   4 51877.8 1330.39   2
   6   2  -4 53873.4 1262.54   1
  -2  -6  -4 50101.2 1326.44   2
   2   6  -4 50666.9 1311.75   1
  -6  -2  -4 52851.9 1329.28   2
  -2   6   3 13932.0 460.448   2
  -2  -6  -3 14040.0 463.393   2
  -2  -6  -2 26417.8 708.859   2
   2  -6   2 26765.3 686.281   1
  -2  -6  -1 1933.20 127.275   2
  -2   6   1 2019.54 127.852   2
   2  -6   1 2021.45 123.111   1
  -2  -6   0 55270.4 1264.92   2
   2   6   0 55807.2 1267.52   2
  -6  -2   0 57128.0 1331.49   2
   2  -6   0 55003.2 1265.89   1
  -6   2  -1 1624.31 128.992   2
  -2   6  -1 1971.94 83.0218   2
   2  -6  -1 1696.88 106.775   1
  -2  -6   1 1739.04 128.978   1
  -2  -6   1 1883.41 102.795   2
  -2   6  -1 1856.38 123.785   1
   2   6   1 1627.04 121.141   2
   2   6   2 26659.2 743.637   2
  -2  -6   2 28483.2 665.376   2
  -2   6  -2 27758.6 737.434   1
  -6   2  -2 28276.6 740.145   2
  -6  -2   2 27561.4 701.693   1
   6   2   2 27895.5 771.393   2
  -2   6  -3 12775.5 425.456   1
  -6   2  -3 12886.3 414.915   2
   2   6   3 13207.7 446.993   2
  -6  -2   3 13910.7 394.700   1
  -2  -6   3 12836.7 343.939   2
   6   2   3 12487.5 440.743   2
  -2   6  -4 52656.9 1317.06   1
   2   6   4 52998.7 1339.49   2
  -6   2  -4 51469.2 1287.26   2
   6   2   4 54574.5 1346.06   2
   6  -2  -4 52747.5 1188.66   1
  -6   2  -5 913.591 117.674   2
   6   2   5 955.347 142.889   2
   6  -2  -5 938.652 82.7119   1
  -2   6  -5 812.489 122.179   1
   2   6   5 865.527 137.512   2
  -2   6  -6 12615.7 483.441   1
   6  -2  -6 12868.0 394.505   1
  -6   2  -6 12719.6 460.987   2
  -2  -6   6 12674.0 391.051   2
  -2   6  -7 2969.36 229.379   1
  -6   2  -7 3204.61 220.997   2
   6  -2  -7 2955.93 177.873   1
  -2  -6   7 3025.49 173.318   2
   6   2   7 2694.38 228.015   2
   6  -2  -8 5486.13 267.032   1
  -2   6  -8 5981.62 345.114   1
   6   3  -9 349.714 138.419   1
   6   3  -8 4427.51 276.156   1
   3   6  -8 4432.06 299.909   1
  -6  -3  -8 4434.01 320.957   2
   3   6  -7 1004.11 156.179   1
  -6  -3  -7 860.612 154.635   2
   6  -3   7 1004.26 137.986   2
   6   3  -7 943.482 142.531   1
  -6  -3  -6 12456.0 502.982   2
   6   3  -6 12952.2 456.862   1
  -3   6   6 13299.0 523.924   2
   3   6  -6 12613.2 489.791   1
   6  -3   6 12386.5 436.456   2
  -6  -3  -5 390.366 107.681   2
   3   6  -5 243.800 103.776   1
   6   3  -5 195.024 83.4467   1
  -3  -6  -5 85.3576 99.5274   2
   3   6  -4 30908.7 878.067   1
  -3  -6  -4 32015.9 903.900   2
  -6  -3  -4 32260.9 898.401   2
  -3  -6  -3 7252.22 310.484   2
  -3  -6  -2 8819.12 332.035   2
  -3  -6  -1 350.772 76.0988   2
   3  -6   1 302.905 61.5840   1
  -6  -3  -1 361.447 84.9973   2
   3   6   0 35149.8 904.969   2
  -3  -6   0 36965.4 902.149   2
  -6  -3   0 35459.3 940.014   2
   3  -6   0 37322.4 872.731   1
  -6   3   0 36665.2 813.226   1
  -6  -3   1 330.791 63.1944   1
  -3   6  -1 412.315 64.5139   1
  -3  -6   1 329.473 63.3319   2
   3   6   1 348.717 74.7132   2
  -6  -3   1 252.958 77.0079   2
   3  -6  -1 412.809 57.0821   1
   3   6   2 7852.34 304.981   2
  -3  -6   2 8234.26 256.295   2
  -3   6  -2 7035.88 193.024   2
  -6   3  -2 7398.63 280.365   2
  -3   6  -2 8191.59 287.229   1
  -6  -3   2 8152.77 278.220   1
  -6  -3   3 8092.15 288.162   1
   3   6   3 7413.78 318.030   2
  -3  -6   3 7651.48 308.392   1
  -6   3  -3 7661.36 289.317   2
   6   3   3 7709.55 329.711   2
  -3   6  -3 7965.22 305.610   1
  -3  -6   3 8579.30 264.987   2
   6  -3  -4 31665.1 731.836   1
  -6   3  -4 32421.7 835.475   2
  -3   6  -4 32660.0 871.239   1
   3   6   4 31634.2 898.102   2
  -6  -3   4 32310.9 834.153   1
  -3  -6   4 31827.9 867.815   1
   6   3   4 32175.3 897.923   2
   6   3   5 417.044 120.594   2
   3   6   5 266.037 112.757   2
  -6   3  -5 259.083 85.8693   2
   6  -3  -5 278.668 52.9568   1
  -3   6  -5 255.820 89.1499   1
  -6   3  -6 12735.2 446.347   2
   6  -3  -6 12325.8 378.121   1
  -3   6  -6 13148.0 488.288   1
   6   3   6 12944.7 500.932   2
  -6   3  -7 1094.56 134.954   2
   6   3   7 884.462 158.410   2
  -3   6  -7 965.652 158.779   1
   6  -3  -7 1018.13 107.927   1
  -3   6  -8 3910.23 286.722   1
   6  -3  -8 4457.30 228.600   1
   6   4  -9 38.1409 123.802   1
   6   4  -8 8924.50 416.834   1
   4   6  -8 9754.24 453.021   1
  -6  -4  -7 965.368 179.044   2
   6  -4   7 1413.08 151.331   2
   6   4  -7 1101.89 151.261   1
   4   6  -7 1034.91 164.719   1
  -6  -4  -6 18023.7 653.657   2
   6   4  -6 19267.5 614.120   1
   4   6  -6 18928.6 639.384   1
  -4   6   6 18666.7 673.025   2
  -4  -6  -5 44.3788 95.6618   2
   6   4  -5 144.521 86.2641   1
   4   6  -5 223.006 98.3702   1
  -6  -4  -5 230.476 107.562   2
   4   6  -4 49613.0 1286.09   1
  -4  -6  -4 50031.8 1304.96   2
  -4  -6  -3 6098.28 291.728   2
  -4  -6  -2 29581.1 817.617   2
  -6  -4  -2 30327.1 832.945   2
  -4  -6  -1 473.047 92.0135   2
  -6  -4  -1 571.413 102.973   2
   4  -6   0 64223.0 1466.61   1
  -6  -4   0 66069.6 1563.02   2
  -6   4   0 64531.5 1421.84   1
  -4  -6   0 66049.1 1530.72   2
   4   6   0 66442.8 1542.97   2
  -6   4  -1 339.750 50.6886   1
  -6  -4   1 528.228 94.9865   2
   4   6   1 423.021 85.9557   2
  -4  -6   1 537.737 84.9275   2
  -4   6  -1 384.070 65.7807   1
   4  -6  -1 420.348 54.5505   1
  -4  -6   1 534.405 92.4932   1
  -6  -4   1 491.194 77.3457   1
  -6   4  -2 30041.9 745.617   1
   4  -6  -2 29493.1 704.576   1
   4   6   2 29872.1 814.695   2
  -4  -6   2 30245.3 758.279   2
  -6  -4   2 28832.9 777.218   1
  -4   6  -2 30094.6 698.805   2
  -6   4  -2 29670.7 763.569   2
   6   4   2 28973.5 823.050   2
  -4  -6   2 29070.5 798.615   1
  -4   6  -2 29968.2 772.422   1
  -4   6  -3 5931.96 176.705   2
  -6  -4   3 5912.73 249.632   1
  -4  -6   3 5753.17 261.411   1
  -4   6  -3 5981.29 256.296   1
  -6   4  -3 5952.56 238.481   2
   4   6   3 5874.00 280.343   2
  -4  -6   3 5800.56 231.679   2
  -6   4  -4 50505.1 1180.71   2
   6  -4  -4 45840.3 1066.38   1
   4   6   4 48516.6 1267.71   2
  -6  -4   4 51397.0 1214.42   1
  -4   6  -4 50997.8 1233.95   1
  -4   6  -4 49354.2 1086.05   2
  -4  -6   4 50677.6 1240.92   1
  -6   4  -5 317.617 82.4439   2
   6  -4  -5 167.926 47.5068   1
   6   4   5 289.679 119.694   2
  -4  -6   5 176.568 90.1286   1
   4   6   5 261.837 114.798   2
  -4   6  -5 221.832 89.5871   1
  -6   4  -6 19378.6 576.744   2
   6  -4  -6 18150.7 502.482   1
   6   4   6 19234.5 656.084   2
  -4   6  -6 18691.7 628.846   1
  -4   6  -7 928.813 151.864   1
   6  -4  -7 1252.19 113.068   1
  -4   6  -8 9074.28 440.402   1
  -6   4  -8 9397.82 441.444   1
   6   5  -9 621.305 165.753   1
   6   5  -8 11042.9 478.772   1
   5   6  -8 11120.3 492.968   1
  -6  -5  -7 5028.80 335.258   2
   6   5  -7 4958.50 299.585   1
   5   6  -7 5412.77 319.932   1
  -6  -5  -6 22022.7 779.899   2
   6   5  -6 24602.5 746.022   1
   5   6  -6 23774.3 752.091   1
   5   6  -5 1855.53 179.148   1
  -5  -6  -5 1728.97 183.610   2
  -5  -6  -4 53292.6 1347.57   2
  -6  -5  -4 48011.7 1323.88   2
  -5  -6  -3 12138.8 456.386   2
  -6  -5  -3 12292.1 462.269   2
  -6  -5  -2 44998.8 1173.71   2
  -5  -6  -2 45719.3 1170.60   2
  -5  -6  -1 3243.31 200.826   2
  -6  -5  -1 3372.25 203.617   2
  -5  -6   0 97861.8 2260.47   2
  -6  -5   0 98928.8 2278.93   2
  -5  -6   1 3405.81 186.886   2
  -6   5  -1 3281.22 140.575   1
  -6  -5   1 3239.76 189.868   1
   5  -6  -1 3055.97 116.729   1
  -5  -6   1 3293.81 193.835   1
  -5   6  -1 3158.82 150.534   1
  -6  -5   1 3668.76 205.539   2
   5   6   1 3750.92 208.478   2
   5  -6  -2 44659.4 996.070   1
  -5   6  -2 46100.3 1088.93   1
  -6   5  -2 45204.5 1074.63   1
  -5  -6   2 45223.1 1107.44   2
   5   6   2 44776.4 1156.08   2
  -6  -5   2 43571.0 1118.84   1
  -5  -6   2 44406.8 1131.40   1
  -6   5  -2 45163.7 1080.94   2
  -5   6  -2 43434.3 1044.01   2
   6   5   2 44317.1 1162.56   2
  -6  -5   2 44435.6 1127.17   2
  -6   5  -3 12381.8 399.346   1
  -6  -5   3 11562.6 410.786   1
  -5  -6   3 11882.8 423.513   1
   5  -6  -3 11458.4 317.119   1
  -5   6  -3 12223.6 404.170   1
  -6   5  -3 12925.8 383.203   2
  -5   6  -3 13004.8 345.559   2
   5   6   3 12798.3 459.454   2
   6   5   3 12290.2 455.094   2
  -5  -6   3 13028.8 409.032   2
  -5   6  -4 55449.3 1152.70   2
  -6   5  -4 55717.2 1202.55   2
  -6   5  -4 53723.5 1256.36   1
   5   6   4 52540.1 1317.01   2
  -5   6  -4 53995.5 1267.34   1
  -5  -6   4 53439.6 1276.75   1
  -6  -5   4 53865.2 1267.28   1
  -5   6  -5 1696.55 102.364   2
  -6   5  -5 1489.75 122.233   2
  -6   5  -5 1545.83 155.186   1
   6  -5  -5 1576.16 88.0744   1
  -5   6  -5 1830.05 165.427   1
  -5  -6   5 1606.62 156.900   1
  -6  -5   5 1624.89 155.105   1
  -6   5  -6 23771.0 739.931   1
   6  -5  -6 23516.2 607.554   1
   6   5   6 23117.1 774.127   2
  -6   5  -6 23951.2 664.057   2
  -5   6  -6 24262.4 748.733   1
  -6   5  -7 4669.48 294.291   1
  -5   6  -7 5038.98 301.596   1
  -6   5  -8 11838.2 507.256   1
  -5   6  -8 11029.0 495.221   1
   6   6  -8 8173.24 416.267   1
  -6  -6  -7 3223.06 284.315   2
   6   6  -7 2986.44 253.362   1
  -6  -6  -5 400.021 125.900   2
  -6  -6  -4 35705.8 1023.71   2
  -6  -6  -3 7571.72 352.449   2
  -6  -6  -2 24055.2 721.649   2
  -6  -6  -1 4738.14 251.208   2
  -6  -6   0 53417.0 1330.28   2
   6   6   1 4607.22 250.806   2
  -6  -6   1 4144.85 225.813   1
  -6  -6   1 4573.98 230.675   2
  -6   6  -1 4367.34 178.364   1
  -6   6  -2 24095.0 643.307   1
  -6  -6   2 24731.2 690.621   2
  -6  -6   2 23104.7 694.249   1
   6   6   2 24266.9 730.253   2
  -6   6  -2 24752.2 638.786   2
  -6  -6   3 7262.33 315.423   1
  -6   6  -3 7631.29 297.084   1
  -6   6  -3 7837.54 264.188   2
  -6  -6   3 7288.20 308.366   2
  -6   6  -4 35086.7 851.578   2
   6   6   4 34291.4 986.307   2
  -6   6  -4 34585.4 926.879   1
  -6  -6   4 33453.9 937.932   1
  -6   6  -5 407.428 69.8371   2
  -6  -6   5 221.359 100.816   1
  -6   6  -5 383.215 98.7808   1
  -6   6  -6 11919.6 470.854   1
  -6   6  -7 3128.94 247.475   1
  -6   6  -8 7878.41 405.220   1
   0   7   0 48759.6 1142.43   2
   0  -7   0 50230.2 1200.89   1
   0   7   1 4362.87 198.242   2
  -7   0   1 4840.57 167.348   1
   0   7  -1 4800.59 155.741   2
  -7   0  -1 4877.60 237.334   2
   0  -7   1 5085.45 224.855   1
   0   7   2 55368.2 1319.33   2
  -7   0   2 54533.1 1221.11   1
   0  -7   2 53155.1 1314.35   1
  -7   0  -2 52899.0 1332.48   2
   0   7   3 58028.9 1428.20   2
   0  -7   3 58150.1 1405.66   1
  -7   0  -3 56544.7 1416.85   2
   0   7  -3 57224.3 1424.72   1
  -7   0  -4 97972.5 2325.54   2
   0   7  -4 99153.5 2336.98   1
   0   7   4 98267.1 2345.66   2
   7   0   4 101732. 2335.69   2
  -7   0  -5 16095.2 556.349   2
   0   7   5 17062.5 589.607   2
   7   0  -5 17432.1 481.814   1
   0   7  -5 15323.8 557.328   1
   7   0   5 17050.7 565.883   2
  -7   0  -6 27571.3 834.092   2
   0   7   6 26813.1 859.770   2
   7   0  -6 27458.8 736.729   1
   7   0   6 28670.5 827.381   2
  -7   0  -7 7535.61 376.922   2
   7   0  -7 7471.25 308.724   1
   7   0   7 7334.55 365.100   2
  -7   0  -8 6578.30 364.350   2
   7   0   8 6838.77 361.502   2
   7   0  -8 6550.51 304.508   1
  -7  -1  -8 5579.30 348.248   2
   7   1  -8 5397.74 283.682   1
   7  -1   8 5627.27 317.282   2
   1   7  -8 5915.80 352.865   1
  -7  -1  -7 3078.86 244.243   2
   7   1  -7 3159.91 206.012   1
   7  -1   7 3368.93 243.540   2
   1   7  -7 3148.87 248.707   1
  -7  -1  -6 11639.1 478.171   2
   7   1  -6 11745.9 404.815   1
   7  -1   6 11975.5 457.192   2
  -1   7   6 12064.1 504.250   2
  -1   7   5 2300.98 205.691   2
  -7  -1  -5 2319.41 190.859   2
   7  -1   5 2387.11 191.413   2
   7   1  -5 2629.97 157.884   1
  -1   7   4 46871.4 1235.66   2
  -7  -1  -4 47453.3 1226.35   2
  -1   7   3 24689.4 726.403   2
  -7  -1  -3 26415.1 745.060   2
   1   7  -3 24238.5 725.439   1
   1  -7   3 26205.3 717.763   1
  -1   7   2 16571.4 505.804   2
  -7  -1  -2 17674.8 536.868   2
  -7   1   2 15962.2 392.897   1
   1  -7   2 18010.1 512.097   1
  -1   7   1 4530.08 197.253   2
   1  -7   1 4910.03 215.114   1
  -7   1   1 4210.92 137.310   1
  -1  -7  -1 4718.01 206.481   2
   1   7  -1 4506.15 160.755   2
  -1   7   0 34438.4 851.063   2
  -1  -7   0 35430.8 915.709   1
   1   7   0 35638.1 861.245   2
  -1  -7   0 36635.8 866.339   2
   1  -7   0 36072.0 898.513   1
  -7  -1   1 4554.37 179.136   1
  -1   7  -1 4548.91 142.917   2
   1   7   1 4478.99 202.490   2
   1  -7  -1 4599.41 206.745   1
  -1  -7   1 4534.07 162.645   2
  -1  -7   1 4520.70 219.282   1
  -7   1  -1 4726.25 229.450   2
  -1  -7   2 15908.7 403.415   2
  -1  -7   2 16888.2 516.394   1
   1   7   2 17889.0 520.591   2
  -1   7  -2 17488.2 525.401   1
  -7   1  -2 17954.7 531.860   2
  -7  -1   2 17738.9 454.686   1
   7   1   3 27579.2 777.305   2
  -7  -1   3 26607.6 674.940   1
   1   7   3 26720.0 767.072   2
  -7   1  -3 26015.7 747.301   2
  -1   7  -3 27107.3 756.886   1
  -1  -7   3 27659.1 758.297   1
   1   7   4 47155.1 1237.76   2
  -7   1  -4 48655.9 1217.84   2
  -1  -7   4 46500.7 1214.84   1
  -1   7  -4 48034.6 1231.23   1
   7   1   4 47795.6 1236.13   2
  -1   7  -5 2129.36 185.680   1
  -1  -7   5 2003.91 76.1983   2
   1   7   5 2406.90 203.994   2
  -7   1  -5 2342.62 178.611   2
   7  -1  -5 2515.71 130.955   1
  -1  -7   5 2088.22 76.5294   2
   7   1   5 2602.02 201.073   2
  -7   1  -6 12150.3 460.398   2
  -1  -7   6 10995.1 299.805   2
   1   7   6 11207.5 477.567   2
   7  -1  -6 11085.8 362.270   1
   7   1   6 11612.2 461.095   2
  -1   7  -6 11659.8 461.319   1
  -7   1  -7 2960.48 228.441   2
   7   1   7 3028.94 245.571   2
   7  -1  -7 3188.01 185.489   1
  -1   7  -7 3415.72 256.302   1
  -7   1  -8 5489.75 323.197   2
   7  -1  -8 5430.89 265.696   1
  -7  -2  -8 8874.34 455.716   2
   7   2  -8 9061.63 389.657   1
   2   7  -8 8956.44 442.963   1
   7  -2   8 9416.91 413.865   2
  -7  -2  -7 1515.01 194.371   2
   7  -2   7 1554.52 170.907   2
   7   2  -7 1730.84 161.621   1
   2   7  -7 1554.27 189.579   1
  -7  -2  -6 14731.0 555.915   2
  -2   7   6 13783.6 559.780   2
   7   2  -6 14209.7 483.001   1
   2   7  -6 15229.2 556.695   1
   7  -2   6 15684.1 525.304   2
   7   2  -5 1020.27 121.176   1
  -2   7   5 904.166 151.985   2
  -7  -2  -5 906.850 140.352   2
   2   7  -5 1215.19 144.409   1
  -7  -2  -4 45250.7 1193.75   2
  -2   7   4 44884.0 1196.70   2
  -2   7   3 19711.9 617.834   2
  -2  -7  -3 20957.6 627.596   2
  -7  -2  -3 19442.1 620.377   2
  -2  -7  -2 23249.6 659.631   2
   2  -7   2 23219.7 641.232   1
  -2   7   2 22615.4 655.408   2
  -2  -7  -1 3377.21 182.940   2
   2  -7   1 3492.35 176.928   1
  -2   7   1 3664.41 178.960   2
  -2   7   0 53325.7 1252.22   2
  -2  -7   0 53136.9 1325.22   1
  -2  -7   0 53220.6 1270.46   2
   2   7   0 55643.5 1276.12   2
  -7  -2   0 54173.3 1343.34   2
   2  -7   0 55590.7 1283.91   1
  -2   7  -1 3268.15 121.135   2
  -2  -7   1 3627.04 150.941   2
  -7  -2   1 3351.06 161.403   1
   2   7   1 3263.83 175.312   2
   2  -7  -1 3432.83 166.144   1
  -2  -7   1 3471.71 195.556   1
  -7   2  -1 3377.33 191.033   2
   2   7   2 22876.0 653.526   2
  -2  -7   2 22681.5 563.553   2
  -2  -7   2 21992.6 652.060   1
  -2   7  -2 23119.0 650.819   1
  -7   2  -2 24747.8 669.214   2
  -7  -2   2 23412.8 606.577   1
   2   7   3 18924.9 605.008   2
  -7   2  -3 20302.3 593.429   2
  -2  -7   3 19700.6 487.176   2
  -7  -2   3 20857.8 550.160   1
  -2   7  -3 19951.8 600.827   1
   7   2   3 19989.3 630.610   2
   7   2   4 47011.9 1215.11   2
  -7   2  -4 45854.3 1170.97   2
   2   7   4 45984.9 1210.82   2
  -2  -7   4 45821.3 1041.51   2
  -7  -2   4 46213.1 1121.84   1
  -2   7  -4 45756.7 1193.73   1
   2   7   5 872.311 147.960   2
   7   2   5 1031.47 151.008   2
  -2   7  -5 886.500 126.035   1
   7  -2  -5 1060.11 81.3946   1
  -7   2  -5 1036.13 132.629   2
  -2  -7   5 978.164 75.0016   2
  -2  -7   6 14512.7 403.629   2
   2   7   6 13982.1 548.803   2
  -2   7  -6 14685.0 536.056   1
  -7   2  -6 15123.5 516.905   2
   7   2   6 14274.0 540.020   2
   7  -2  -6 14171.4 419.212   1
   7  -2  -7 1547.50 125.779   1
  -7   2  -7 1686.21 176.273   2
   7   2   7 1626.30 195.892   2
  -2   7  -7 1536.36 182.268   1
  -2   7  -8 8907.61 435.758   1
  -7   2  -8 8905.78 409.482   2
   7   3  -9 35.3197 120.043   1
  -7  -3  -8 3328.61 279.711   2
   7   3  -8 3760.71 249.988   1
   3   7  -8 3313.77 269.937   1
  -7  -3  -7 1232.03 190.243   2
   7   3  -7 863.824 134.616   1
   7  -3   7 956.801 143.701   2
   3   7  -7 1060.53 169.986   1
  -3   7   6 9651.31 457.329   2
  -7  -3  -6 10212.3 457.069   2
   3   7  -6 10152.4 442.422   1
  -7  -3  -5 421.021 120.294   2
  -3   7   5 156.512 105.655   2
   3   7  -5 186.903 108.293   1
  -3  -7  -4 43927.1 1180.89   2
   3   7  -4 43106.7 1168.24   1
  -7  -3  -4 44345.0 1185.66   2
  -3   7   4 43896.9 1181.17   2
  -3  -7  -3 8573.62 353.548   2
  -3   7   3 7980.43 343.928   2
  -3  -7  -2 20338.3 608.364   2
   3  -7   1 1133.43 100.148   1
  -7  -3  -1 1037.12 121.086   2
  -3  -7  -1 1159.47 113.949   2
   3  -7   0 28285.4 709.375   1
  -7   3   0 27334.5 635.218   1
  -3  -7   0 28158.5 730.612   2
  -7  -3   0 29476.8 790.528   2
   3   7   0 28737.8 739.068   2
  -3  -7   1 846.825 87.0749   2
   3   7   1 1026.33 106.215   2
  -7  -3   1 980.617 121.487   2
  -7  -3   1 1069.56 99.7342   1
   3  -7  -1 1129.15 88.9755   1
   3  -7  -2 19845.9 533.007   1
  -3  -7   2 19565.1 521.702   2
   3   7   2 19383.7 593.032   2
  -3   7  -2 19848.1 575.049   1
  -7   3  -2 20098.0 580.864   2
  -7  -3   2 20277.5 556.697   1
  -7  -3   3 8471.33 302.798   1
   3   7   3 8184.77 344.478   2
  -7   3  -3 7999.34 313.355   2
  -3  -7   3 8301.40 265.848   2
  -3   7  -3 8426.75 330.515   1
   7   3   3 8629.67 366.758   2
  -3   7  -4 43446.7 1128.58   1
  -3  -7   4 41900.9 1124.46   1
  -7  -3   4 45039.6 1087.64   1
  -7   3  -4 43424.2 1101.52   2
   3   7   4 43574.2 1158.98   2
  -3  -7   4 42889.3 1017.67   2
   7   3   4 43116.1 1157.86   2
   7   3   5 244.280 117.043   2
  -3   7  -5 190.424 95.1273   1
  -3  -7   5 298.813 68.2691   2
   7  -3  -5 309.249 46.8550   1
  -7   3  -5 369.023 94.6160   2
   3   7   5 238.742 130.348   2
  -3  -7   5 337.815 101.983   1
  -3   7  -6 10478.2 434.157   1
   3   7   6 9543.80 448.057   2
   7   3   6 10441.0 453.887   2
  -7   3  -6 11170.5 413.769   2
   7  -3  -6 10385.3 316.398   1
  -7   3  -7 956.087 145.544   2
  -3   7  -7 884.674 150.944   1
   7  -3  -7 1000.49 100.619   1
  -3   7  -8 3546.66 277.197   1
   7   4  -9 380.898 143.843   1
  -7  -4  -8 7649.19 433.016   2
   7   4  -8 8112.02 391.658   1
   4   7  -8 8539.26 429.736   1
  -7  -4  -7 2624.84 250.732   2
   7   4  -7 2603.32 211.055   1
   4   7  -7 2778.11 246.766   1
  -7  -4  -6 15615.8 598.375   2
   7   4  -6 15517.8 541.299   1
   4   7  -6 15542.9 576.367   1
  -4   7   6 15017.9 595.640   2
  -4  -7  -5 339.175 130.835   2
   4   7  -5 593.696 120.805   1
  -4   7   5 361.161 121.718   2
  -7  -4  -5 428.796 122.967   2
  -4  -7  -4 43221.9 1178.97   2
  -4  -7  -3 5745.64 290.435   2
  -4  -7  -2 32463.3 899.445   2
  -7  -4  -2 33787.4 925.470   2
  -4  -7  -1 481.388 95.4611   2
  -7  -4  -1 487.214 106.409   2
  -4  -7   0 78885.8 1794.42   2
  -7  -4   0 76176.7 1837.64   2
  -7   4   0 75916.3 1668.70   1
   4  -7   0 78548.3 1745.81   1
   4   7   0 77678.7 1802.46   2
  -4  -7   1 362.503 82.3021   2
   4  -7  -1 473.846 65.3065   1
   4   7   1 415.036 89.1381   2
  -7  -4   1 497.519 111.233   2
  -7   4  -1 453.422 56.0312   1
  -7  -4   1 444.235 81.3428   1
   7   4   2 31365.8 910.639   2
  -7  -4   2 34850.1 911.264   2
  -4  -7   2 32345.2 825.431   2
   4  -7  -2 32717.5 789.141   1
   4   7   2 33210.0 893.160   2
  -4   7  -2 32667.3 851.094   1
  -7  -4   2 31574.3 851.289   1
  -4   7  -2 33503.4 755.899   2
  -7   4  -2 33528.2 856.199   2
  -4  -7   2 31483.5 883.682   1
  -7   4  -2 32390.9 812.955   1
  -7  -4   3 5947.78 255.011   1
  -4  -7   3 6012.92 278.278   1
   4   7   3 5657.68 288.098   2
  -7   4  -3 6136.37 254.814   2
  -4  -7   3 5513.79 226.741   2
  -4   7  -3 5686.19 263.317   1
  -7  -4   4 43737.1 1121.69   1
  -4   7  -4 43605.7 1147.48   1
  -7   4  -4 44324.2 1113.14   2
   4   7   4 45370.0 1196.98   2
   7   4   4 43677.7 1191.90   2
  -4  -7   4 46291.9 1080.85   2
  -4  -7   4 42939.8 1154.52   1
   4   7   5 525.304 143.285   2
   7   4   5 636.222 148.145   2
  -4   7  -5 564.193 115.131   1
  -7   4  -5 628.536 106.363   2
  -4  -7   5 612.746 118.978   1
   7  -4  -5 481.793 44.4143   1
   7  -4  -6 15157.8 413.005   1
  -7   4  -6 16036.8 517.300   2
  -4   7  -6 15777.1 563.744   1
   4   7   6 15695.4 593.953   2
   7   4   6 15306.3 581.274   2
  -7   4  -7 2622.51 193.097   2
  -4   7  -7 2575.52 223.903   1
  -4   7  -8 8470.06 424.952   1
   7   5  -8 8410.09 414.205   1
   5   7  -8 9506.17 461.639   1
  -7  -5  -7 7205.43 406.938   2
   7   5  -7 7308.20 366.847   1
   5   7  -7 7021.31 378.268   1
  -5  -7  -6 17020.0 646.362   2
   5   7  -6 16684.6 618.618   1
  -7  -5  -6 17135.1 644.303   2
  -5  -7  -5 4601.16 299.637   2
  -5  -7  -4 38294.9 1075.35   2
  -5  -7  -3 24424.1 744.651   2
  -7  -5  -3 23964.9 747.097   2
  -5  -7  -2 27280.7 785.077   2
  -7  -5  -2 26840.0 796.998   2
  -5  -7  -1 14325.5 487.902   2
  -7  -5  -1 15082.1 508.177   2
  -5  -7   0 50707.4 1251.06   2
  -7  -5   0 49765.7 1275.18   2
   5  -7  -1 15251.8 397.540   1
  -7   5  -1 15142.5 404.122   1
  -5   7  -1 14522.3 441.956   1
  -7  -5   1 15086.4 486.781   1
  -5  -7   1 14929.0 471.256   2
  -5  -7   1 14044.8 491.540   1
  -7  -5   1 15713.0 512.228   2
   5   7   1 15528.1 504.661   2
   5  -7  -2 28466.6 647.052   1
  -5  -7   2 26011.2 723.622   2
  -7   5  -2 26946.9 698.317   1
  -5   7  -2 27828.4 729.063   1
   5   7   2 26981.5 782.920   2
  -7  -5   2 26099.7 747.160   1
  -7   5  -2 26002.7 721.317   2
  -5   7  -2 26301.0 660.490   2
  -5  -7   2 27169.1 771.654   1
  -7  -5   2 26054.0 765.346   2
   7   5   2 27476.0 802.270   2
  -5   7  -3 24290.7 686.819   1
  -5  -7   3 23196.6 707.820   1
  -5   7  -3 24193.7 580.453   2
  -7  -5   3 24285.9 693.898   1
   5  -7  -3 23538.8 589.702   1
  -7   5  -3 24613.3 662.434   2
   5   7   3 24280.4 738.713   2
  -7   5  -3 24867.7 669.871   1
  -5  -7   3 24292.0 667.356   2
   7   5   3 24418.7 750.023   2
  -5   7  -4 36337.9 849.917   2
  -5   7  -4 38149.8 1007.22   1
  -7   5  -4 39146.7 958.557   2
  -7   5  -4 38348.1 986.548   1
   5   7   4 36945.4 1050.99   2
  -5  -7   4 37733.9 1018.18   1
  -7  -5   4 38247.2 997.093   1
  -5  -7   4 37328.6 953.833   2
  -5  -7   5 4983.64 228.195   2
  -5   7  -5 4877.53 260.172   1
  -7   5  -5 4836.45 223.407   2
  -5  -7   5 4306.03 251.155   1
   5   7   5 4694.90 290.972   2
  -7   5  -5 4661.69 249.217   1
  -7  -5   5 4310.98 241.882   1
  -7   5  -6 17063.7 523.235   2
  -5   7  -6 16416.2 585.621   1
  -7   5  -6 16145.7 572.412   1
  -7   5  -7 7643.92 378.278   1
  -5   7  -7 7710.83 387.370   1
  -7   5  -8 9663.83 450.520   1
  -5   7  -8 9061.45 449.730   1
   6   7  -8 7822.84 424.558   1
  -7  -6  -7 5379.70 359.798   2
  -6  -7  -6 8578.34 444.294   2
  -7  -6  -5 1622.83 202.625   2
  -6  -7  -5 1650.49 198.365   2
  -6  -7  -4 18058.5 634.754   2
  -7  -6  -4 17209.2 624.908   2
  -6  -7  -3 16659.5 588.318   2
  -7  -6  -3 17155.8 598.996   2
  -6  -7  -2 13374.6 487.806   2
  -7  -6  -2 12841.9 488.020   2
  -7  -6  -1 12962.3 474.253   2
  -6  -7  -1 13332.9 469.163   2
  -7  -6   0 37273.5 1006.91   2
  -6  -7   0 37362.4 991.916   2
   6   7   1 13442.1 476.754   2
  -6   7  -1 12911.1 393.449   1
  -7  -6   1 12955.9 457.996   1
  -6  -7   1 13672.6 455.069   2
  -6  -7   1 13450.4 472.790   1
  -7  -6   1 13431.8 466.246   2
  -7   6  -1 13006.3 373.365   1
  -7   6  -2 13150.3 397.127   1
  -6  -7   2 12598.9 435.759   2
  -6   7  -2 13385.0 414.600   1
  -7  -6   2 12790.4 451.097   1
  -7  -6   2 12666.5 452.512   2
  -6  -7   2 12558.5 457.003   1
  -7   6  -2 13078.0 414.270   2
   6   7   2 12699.2 474.676   2
  -6   7  -2 12285.5 378.801   2
   7   6   2 12899.4 489.283   2
  -6  -7   3 16370.9 552.690   1
  -7  -6   3 16075.0 539.549   1
  -6   7  -3 16794.8 455.855   2
  -7   6  -3 17272.0 515.835   1
  -7   6  -3 17381.2 494.287   2
  -6   7  -3 16860.5 523.361   1
   6   7   3 17094.5 593.117   2
  -6  -7   3 16801.7 526.979   2
   7   6   3 17103.4 596.096   2
  -7  -6   3 16476.0 546.906   2
  -7  -6   4 17316.0 558.247   2
  -6   7  -4 17527.8 446.094   2
  -7   6  -4 16897.2 487.490   2
  -6   7  -4 16560.7 541.778   1
   6  -7  -4 15543.7 405.050   1
  -6  -7   4 17209.4 569.027   1
   6   7   4 16355.5 596.390   2
  -7  -6   4 16639.8 548.982   1
  -7   6  -4 17169.5 538.283   1
   7   6   4 16611.4 600.438   2
  -6  -7   4 16725.1 525.049   2
  -7   6  -5 2001.46 140.147   2
  -6  -7   5 1720.87 174.391   1
   6   7   5 1723.26 195.369   2
  -6  -7   5 1886.87 161.879   2
  -7  -6   5 1830.07 171.258   1
  -6   7  -5 1809.69 178.439   1
  -7   6  -5 1738.34 175.153   1
  -6   7  -5 1769.22 103.056   2
  -7   6  -6 7641.62 375.301   1
  -7   6  -6 8455.27 312.381   2
  -6   7  -6 8267.68 382.575   1
  -7   6  -7 5625.93 331.071   1
  -6   7  -7 5872.27 336.741   1
  -7  -7  -6 6490.77 390.101   2
  -7  -7  -5 2223.88 235.731   2
  -7  -7  -4 12322.5 506.701   2
  -7  -7  -3 10797.8 457.989   2
  -7  -7  -2 13044.1 495.393   2
  -7  -7  -1 19914.4 647.190   2
  -7  -7   0 47565.7 1234.79   2
  -7   7  -1 18898.7 519.844   1
  -7  -7   1 19360.5 620.665   1
  -7  -7   1 19917.7 610.706   2
  -7  -7   2 12824.5 458.589   2
  -7   7  -2 13614.2 413.778   1
  -7  -7   2 12082.9 458.587   1
  -7   7  -2 12762.9 406.766   2
   7   7   2 12673.7 493.871   2
  -7   7  -3 11458.0 401.131   1
  -7  -7   3 11667.0 446.108   1
  -7   7  -3 11596.6 368.281   2
  -7  -7   3 12332.9 436.573   2
   7   7   3 11991.8 483.048   2
  -7   7  -4 12410.3 368.711   2
  -7   7  -4 11327.4 427.724   1
  -7  -7   4 11510.7 447.809   1
   7   7   4 11540.6 487.853   2
  -7  -7   4 12033.2 440.810   2
  -7   7  -5 2144.80 133.285   2
  -7  -7   5 2249.40 194.754   1
  -7   7  -5 2153.60 188.974   1
  -7  -7   5 2484.73 198.430   2
  -7   7  -6 6937.03 352.354   1
  -7   7  -7 10349.3 461.432   1
  -8   0   0 129567. 2969.58   2
   0   8   0 127989. 2850.26   2
   0  -8   0 131489. 2921.54   1
   0  -8   1 1653.91 141.758   1
   0   8   1 1772.66 127.206   2
  -8   0   1 1960.52 102.966   1
   0   8  -1 1751.60 90.3163   2
  -8   0  -1 1977.50 162.243   2
   0   8   2 23234.2 672.564   2
  -8   0   2 23984.3 583.887   1
   0  -8   2 23482.6 681.064   1
  -8   0  -2 24689.8 712.795   2
   0   8   3 365.391 97.4374   2
   0   8  -3 376.684 104.323   1
  -8   0  -3 218.954 92.4128   2
   0  -8   3 261.922 90.0029   1
   0   8   4 19704.2 634.723   2
  -8   0  -4 19061.2 625.792   2
   0   8  -4 19303.3 627.702   1
   0  -8   4 19369.7 615.970   1
   0   8   5 357.108 117.110   2
   8   0   5 314.380 126.166   2
  -8   0  -5 573.691 127.915   2
   0   8  -5 245.705 100.476   1
  -8   0  -6 25359.0 797.837   2
   0   8   6 25411.3 827.045   2
   8   0  -6 25443.2 690.952   1
   0   8  -6 25420.2 813.289   1
   8   0   6 26253.4 802.999   2
  -8   0  -7 5942.61 336.650   2
   8   0  -7 6126.98 269.657   1
   8   0   7 6142.90 340.478   2
  -8   0  -8 13661.6 566.015   2
  -8  -1  -8 11520.8 521.179   2
   1   8  -8 11176.0 513.064   1
  -8  -1  -7 3472.01 267.100   2
   8   1  -7 3475.62 211.561   1
   8  -1   7 3610.91 256.805   2
  -1   8   6 10527.0 466.573   2
  -8  -1  -6 9414.20 429.379   2
   8  -1   6 10408.4 434.376   2
  -1   8   5 8036.11 392.334   2
  -8  -1  -5 8930.64 394.364   2
  -8  -1  -4 3754.96 249.640   2
   1   8  -4 3650.68 239.467   1
  -1   8   3 4166.64 238.133   2
   1  -8   3 4176.39 227.306   1
  -8  -1  -3 4027.01 244.102   2
  -1   8   2 8965.71 340.502   2
  -8   1   2 8734.33 234.772   1
  -8  -1  -2 9551.34 375.312   2
   1  -8   2 9691.04 350.454   1
  -1   8   1 1173.44 108.071   2
  -8  -1  -1 1405.44 145.890   2
   1  -8   1 1243.07 125.223   1
  -8   1   1 1205.77 68.7363   1
   1   8  -1 1473.76 96.7317   2
  -1   8   0 76186.0 1735.82   2
  -1  -8   0 77030.8 1816.75   1
   1   8   0 76890.8 1747.08   2
   1  -8   0 77044.1 1794.86   1
   1  -8  -1 1201.29 121.120   1
   1   8   1 1306.48 112.583   2
  -1   8  -1 1286.79 71.4010   2
  -8  -1   1 1336.93 96.5745   1
  -1  -8   1 1002.66 124.467   1
  -8   1  -1 1384.01 142.854   2
  -8  -1   2 9537.67 295.042   1
  -1  -8   2 9513.09 361.934   1
   1   8   2 9112.16 348.024   2
  -8   1  -2 9457.44 369.738   2
  -8  -1   3 4463.35 181.600   1
   1   8   3 4051.26 235.340   2
  -1   8  -3 4396.74 241.473   1
  -8   1  -3 4470.71 242.915   2
  -1  -8   3 3965.05 228.890   1
   8   1   4 4135.95 254.245   2
   1   8   4 4147.16 257.162   2
  -8   1  -4 3799.21 234.690   2
  -1  -8   4 3907.80 242.561   1
  -1   8  -4 3687.56 235.471   1
   1   8   5 8304.02 395.039   2
  -8   1  -5 8400.46 376.029   2
  -1   8  -5 8496.78 385.905   1
   8   1   5 8687.75 389.858   2
  -8   1  -6 10666.3 443.301   2
   1   8   6 10879.0 476.281   2
   8  -1  -6 10431.3 340.206   1
   8   1   6 10296.5 451.718   2
  -1   8  -6 10039.3 447.630   1
  -8   1  -7 3404.85 252.166   2
   8   1   7 3522.32 266.559   2
  -1   8  -7 3313.93 263.776   1
  -8   1  -8 11051.1 492.180   2
  -1   8  -8 11184.8 509.659   1
  -8  -2  -8 9954.11 487.782   2
   8   2  -8 10480.1 423.463   1
   2   8  -8 10234.8 491.666   1
   8  -2   7 4151.91 273.166   2
  -8  -2  -7 3733.24 286.424   2
   8   2  -7 3913.85 238.778   1
   2   8  -7 4323.37 298.305   1
  -8  -2  -6 9146.19 425.067   2
   2   8  -6 8332.89 405.221   1
  -2   8   6 8659.07 421.331   2
  -2   8   5 5736.71 323.430   2
  -8  -2  -5 6233.31 334.022   2
  -2   8   4 2502.07 197.978   2
  -8  -2  -4 2460.50 203.608   2
  -2   8   3 2226.02 173.815   2
  -8  -2  -3 2151.30 184.548   2
  -2  -8  -2 7132.13 300.076   2
  -2   8   2 6659.08 288.878   2
   2  -8   2 7096.86 287.225   1
  -8  -2  -2 6515.88 315.834   2
  -2  -8  -1 2052.51 149.707   2
  -2   8   1 2276.75 142.989   2
   2  -8   1 2020.31 149.652   1
   2  -8   0 68803.2 1584.59   1
  -2   8   0 66685.3 1543.23   2
  -2  -8   0 68830.8 1633.25   1
  -2  -8   0 69286.0 1570.30   2
   2   8   0 68701.7 1572.80   2
  -2  -8   1 2230.48 123.823   2
  -2   8  -1 2087.99 96.4127   2
  -8  -2   1 2336.49 139.258   1
   2   8   1 2247.15 150.709   2
   2  -8  -1 1995.68 138.740   1
  -2  -8   1 1983.02 161.371   1
  -2  -8   2 6313.93 289.934   1
  -2   8  -2 6522.26 290.417   1
   2   8   2 6758.36 291.267   2
  -2  -8   2 6819.15 217.091   2
  -8   2  -2 6935.57 304.281   2
  -8  -2   2 7029.28 253.957   1
  -2  -8   3 2008.76 90.4588   2
   2   8   3 2143.87 174.219   2
  -8   2  -3 2078.25 166.244   2
  -2  -8   3 2151.18 174.865   1
  -2   8  -3 2185.40 172.383   1
  -8  -2   3 2087.73 129.351   1
   2   8   4 2311.73 191.161   2
  -8   2  -4 2426.49 181.290   2
  -2  -8   4 2071.63 84.2245   2
  -2   8  -4 2132.94 177.999   1
  -8  -2   4 2198.17 144.174   1
   8   2   4 2694.84 215.774   2
  -8   2  -5 6361.41 307.085   2
   2   8   5 6637.97 340.001   2
  -2  -8   5 5236.31 158.050   2
  -2   8  -5 5680.54 304.221   1
   8   2   5 6176.59 323.939   2
  -8   2  -6 8488.15 376.864   2
   2   8   6 8268.84 413.924   2
   8  -2  -6 9106.62 282.767   1
   8   2   6 8198.25 402.908   2
  -2   8  -6 8223.61 395.047   1
  -2   8  -7 3801.19 276.782   1
  -8   2  -7 4471.91 278.140   2
  -8   2  -8 10457.8 458.854   2
  -2   8  -8 10215.0 482.911   1
  -8  -3  -8 2193.76 243.126   2
   8   3  -8 2206.47 205.901   1
  -8  -3  -7 1670.50 206.120   2
   3   8  -7 1703.92 206.913   1
  -3   8   6 4627.75 309.146   2
  -8  -3  -6 5002.39 310.707   2
   3   8  -6 4537.96 293.606   1
  -3   8   5 2014.82 202.007   2
  -8  -3  -5 1859.91 193.873   2
   3   8  -5 1899.31 186.959   1
  -3  -8  -4 1871.58 188.608   2
  -3   8   4 1790.05 177.930   2
  -8  -3  -4 1777.35 183.156   2
  -3   8   3 1982.63 169.376   2
  -3  -8  -3 2005.83 172.393   2
  -3   8   2 375.864 83.8729   2
  -3  -8  -2 447.841 101.802   2
   3  -8   2 318.688 86.1093   1
  -3   8   1 213.912 67.0017   2
  -3  -8  -1 173.044 79.3907   2
   3  -8   1 100.065 63.6067   1
  -8  -3  -1 36.0639 91.9735   2
  -3   8   0 32014.0 803.562   2
  -3  -8   0 32141.3 830.468   2
   3  -8   0 32500.3 816.680   1
  -3  -8   0 31637.8 885.546   1
  -8   3   0 31854.9 724.812   1
  -8  -3   0 32376.1 898.860   2
   3   8   0 32410.8 835.400   2
  -3   8  -1 169.189 41.4741   2
  -3  -8   1 192.111 63.0321   2
   3   8   1 102.548 72.3993   2
  -8  -3   1 9.04980 91.8130   2
  -8   3  -1 104.533 77.4092   2
  -3  -8   1 162.632 86.5301   1
   3  -8  -1 112.421 63.2962   1
  -8  -3   1 179.885 65.3663   1
  -3  -8   2 383.132 67.1010   2
   3  -8  -2 400.810 73.9616   1
   3   8   2 486.365 97.1307   2
  -8   3  -2 534.931 97.0793   2
  -3   8  -2 415.351 86.2397   1
  -8  -3   2 457.461 77.7951   1
   8   3   3 1903.85 184.127   2
  -8  -3   3 2027.90 139.634   1
  -3  -8   3 2115.54 115.313   2
   3   8   3 1735.95 167.471   2
  -8   3  -3 1969.03 153.833   2
  -3   8  -3 1750.00 154.048   1
   3   8   4 1673.32 172.103   2
  -8  -3   4 1952.98 142.900   1
   8   3   4 2025.32 196.597   2
  -8   3  -4 2101.02 166.880   2
  -3  -8   4 1886.52 106.840   2
  -3   8  -4 1975.72 174.582   1
  -3  -8   5 1626.88 172.555   1
  -8   3  -5 2170.09 179.811   2
   8   3   5 1903.45 196.419   2
   3   8   5 2394.45 216.270   2
  -3  -8   5 1956.26 110.811   2
  -3   8  -5 2204.97 194.853   1
  -3   8  -6 4750.35 288.103   1
  -8   3  -6 4455.80 262.118   2
   3   8   6 4741.68 314.670   2
   8   3   6 5168.42 313.851   2
  -8   3  -7 1634.29 175.427   2
  -3   8  -7 2017.00 207.829   1
  -8   3  -8 2182.27 209.515   2
  -8  -4  -7 3686.60 294.833   2
   4   8  -7 3639.79 275.398   1
  -8  -4  -6 4586.29 314.799   2
   4   8  -6 4778.56 312.646   1
  -4  -8  -5 248.459 128.138   2
  -4   8   5 157.914 105.585   2
  -8  -4  -5 298.002 126.691   2
  -4  -8  -4 3142.27 236.485   2
  -4   8   4 2578.12 214.764   2
  -4  -8  -3 1394.48 161.893   2
  -4  -8  -2 1049.68 139.054   2
  -8  -4  -2 1280.97 155.526   2
  -4  -8  -1 1563.23 140.080   2
  -8  -4  -1 1400.00 157.176   2
   4  -8   1 1393.57 120.854   1
  -4  -8   0 19908.8 574.141   2
  -8  -4   0 20805.4 633.238   2
  -8   4   0 18540.2 441.924   1
   4  -8   0 20076.1 535.569   1
   4   8   0 21830.7 591.708   2
  -8   4  -1 1627.73 93.0758   1
   4  -8  -1 1620.26 110.367   1
  -8  -4   1 1527.15 157.451   2
  -4  -8   1 1578.65 127.055   2
  -8  -4   1 1364.86 128.941   1
   4   8   1 1577.03 144.929   2
  -4   8  -2 908.779 57.8971   2
  -4   8  -2 1229.86 124.008   1
   4   8   2 1150.79 133.102   2
  -8   4  -2 1137.70 120.458   2
  -8  -4   2 1227.11 151.303   2
  -4  -8   2 1285.67 114.964   2
   4  -8  -2 1091.41 93.7547   1
  -8  -4   2 1110.12 114.628   1
  -4   8  -2 1194.97 60.6068   2
   4  -8  -3 841.079 91.5081   1
  -4  -8   3 1028.25 103.657   2
   4   8   3 1050.01 141.987   2
  -8   4  -3 964.815 119.520   2
  -8  -4   3 971.772 112.428   1
  -4  -8   3 1122.83 137.614   1
  -4   8  -3 1041.66 125.896   1
  -8   4  -4 2869.48 190.768   2
   4   8   4 3119.30 234.865   2
  -4  -8   4 2977.76 155.876   2
  -4  -8   4 2883.60 211.696   1
  -4   8  -4 3072.51 208.728   1
   8   4   4 2968.04 232.033   2
  -8  -4   4 3002.49 184.866   1
  -4   8  -5 213.944 102.182   1
  -8   4  -5 89.8538 89.5027   2
   4   8   5 249.615 117.847   2
  -4  -8   5 41.3505 95.0853   1
  -4  -8   5 120.834 70.3153   2
   8   4   5 95.5763 123.832   2
  -4   8  -6 5110.34 302.118   1
  -8   4  -6 5394.92 273.882   2
  -8   4  -7 4193.36 252.279   2
  -4   8  -7 3679.18 281.412   1
  -8  -5  -7 5801.06 374.016   2
   5   8  -7 5609.10 351.986   1
  -5  -8  -6 7632.19 414.862   2
  -8  -5  -6 7598.86 412.289   2
  -5  -8  -5 2575.54 234.033   2
  -5  -8  -4 9952.19 443.113   2
  -5  -8  -3 7368.84 352.003   2
  -8  -5  -3 6729.29 346.452   2
  -5  -8  -2 2093.61 179.318   2
  -8  -5  -2 2122.73 187.572   2
  -5  -8  -1 7676.31 326.088   2
  -8  -5  -1 7382.85 349.090   2
  -8  -5   0 16021.1 547.592   2
  -5  -8   0 15773.7 508.756   2
   5  -8   0 16022.4 448.726   1
  -8   5  -1 7595.82 237.329   1
  -5  -8   1 7767.40 305.889   2
  -8  -5   1 7154.20 310.472   1
  -5  -8   1 7167.58 326.788   1
  -8  -5   1 7406.61 339.215   2
   5  -8  -1 7662.09 250.159   1
   5   8   1 7130.52 320.798   2
   5  -8  -2 2087.93 113.604   1
  -5  -8   2 2373.93 160.594   2
  -5   8  -2 2155.51 155.222   1
  -8  -5   2 2291.23 168.145   1
  -8   5  -2 2021.31 129.791   1
   5   8   2 2202.24 184.554   2
  -8   5  -2 2301.18 165.767   2
  -5   8  -2 2100.12 105.877   2
  -8  -5   2 2381.49 193.515   2
  -5  -8   2 1955.25 170.663   1
  -8  -5   3 6775.97 328.723   2
  -8  -5   3 6889.63 299.428   1
  -8   5  -3 6956.74 274.522   1
  -5  -8   3 7080.62 324.682   1
  -5   8  -3 6126.26 177.227   2
  -5  -8   3 7019.28 274.000   2
  -8   5  -3 6861.55 284.875   2
   5  -8  -3 7025.91 228.874   1
   5   8   3 6344.38 321.263   2
  -5   8  -3 6897.28 302.250   1
   8   5   3 7214.90 353.907   2
  -8   5  -4 9506.30 355.642   2
  -8   5  -4 9784.81 368.257   1
   5   8   4 9617.57 425.192   2
  -5  -8   4 10149.3 342.031   2
  -5  -8   4 8729.26 387.349   1
  -8  -5   4 8857.44 366.450   1
  -5   8  -4 9667.76 394.127   1
  -5   8  -5 2468.28 201.419   1
   5   8   5 2353.64 219.851   2
  -8   5  -5 2187.15 165.733   2
  -5  -8   5 2384.53 198.360   1
  -8   5  -5 2401.52 187.022   1
  -8  -5   5 2370.61 190.502   1
  -5  -8   5 2497.80 160.519   2
   8   5   5 2421.16 232.295   2
  -8   5  -6 7850.76 330.706   2
  -5   8  -6 8543.61 393.501   1
  -8   5  -6 7515.34 360.092   1
  -5   8  -7 6240.15 355.640   1
  -8   5  -7 6358.65 344.806   1
  -6  -8  -6 3857.37 302.317   2
  -6  -8  -5 508.828 148.840   2
  -6  -8  -4 5345.14 319.588   2
  -8  -6  -4 5260.43 318.996   2
  -6  -8  -3 2947.42 230.148   2
  -8  -6  -3 2981.47 239.881   2
  -6  -8  -2 1339.86 164.706   2
  -8  -6  -2 1152.41 163.300   2
  -6  -8  -1 1875.69 181.051   2
  -8  -6  -1 2222.38 197.023   2
  -6  -8   0 14088.9 484.428   2
  -8  -6   0 13282.7 499.350   2
   6   8   1 2308.79 190.420   2
  -6  -8   1 2420.75 177.928   2
  -8  -6   1 2166.79 176.195   1
  -6  -8   1 2334.39 191.654   1
  -8   6  -1 2228.75 116.137   1
  -8  -6   1 2493.95 201.088   2
  -8   6  -2 1514.27 113.177   1
  -8  -6   2 1442.92 160.178   2
  -8   6  -2 1274.12 125.302   2
   6   8   2 1362.44 161.933   2
   6  -8  -2 1233.68 73.2568   1
  -6  -8   2 1532.10 144.359   2
  -6   8  -2 1274.93 124.362   1
  -8  -6   2 1348.55 142.321   1
  -6  -8   2 1360.24 154.838   1
  -6   8  -2 1383.20 101.601   2
  -8  -6   3 2768.33 198.511   1
  -6  -8   3 2709.42 202.432   1
   6  -8  -3 2637.67 107.843   1
  -6   8  -3 2919.81 125.838   2
  -8   6  -3 2954.23 174.329   1
  -8   6  -3 3213.32 182.939   2
  -6  -8   3 2857.08 184.866   2
   6   8   3 2707.22 224.186   2
  -6   8  -3 2750.72 184.230   1
  -8  -6   3 3306.58 225.779   2
   8   6   3 2895.81 232.447   2
  -6   8  -4 5390.27 278.409   1
  -6   8  -4 4813.40 157.535   2
  -8   6  -4 5344.71 243.192   2
  -6  -8   4 5464.37 293.109   1
  -8  -6   4 5218.94 279.952   1
   6   8   4 5610.89 315.914   2
  -6  -8   4 5398.96 256.881   2
  -8   6  -4 5170.18 257.604   1
   8   6   4 5437.50 325.150   2
  -8  -6   4 5542.69 294.064   2
  -6  -8   5 355.805 115.704   1
  -8   6  -5 503.030 96.9980   2
  -6   8  -5 442.725 120.683   1
  -6  -8   5 561.274 112.724   2
  -8  -6   5 695.145 124.263   1
  -8   6  -5 392.949 112.724   1
  -8   6  -6 3399.70 242.515   1
  -6   8  -6 4226.76 272.719   1
  -8   6  -7 3384.94 252.858   1
  -6   8  -7 3130.85 251.804   1
  -7  -8  -6 4300.13 319.876   2
  -8  -7  -6 3754.77 308.134   2
  -7  -8  -5 638.374 173.689   2
  -8  -7  -5 967.281 185.925   2
  -7  -8  -4 7389.28 393.563   2
  -8  -7  -4 7446.57 391.893   2
  -7  -8  -3 3680.30 266.848   2
  -8  -7  -3 3662.33 267.620   2
  -7  -8  -2 3046.78 232.667   2
  -8  -7  -2 2863.05 231.052   2
  -7  -8  -1 1876.25 183.423   2
  -8  -7  -1 1854.34 184.792   2
  -7  -8   0 13029.6 480.315   2
  -8  -7   0 13035.1 489.027   2
  -7  -8   1 1678.48 168.036   1
  -7  -8   1 1553.05 167.326   2
  -8  -7   1 1840.66 170.606   1
  -8  -7   1 2052.20 181.774   2
  -7   8  -2 2777.57 169.767   1
  -7  -8   2 3118.89 209.664   2
  -8  -7   2 2849.68 217.880   2
  -8   7  -2 3335.07 171.784   1
  -8  -7   2 3168.32 218.090   1
  -8   7  -2 2880.30 176.881   2
  -7   8  -2 2975.60 161.824   2
  -7  -8   2 2963.07 214.000   1
   7   8   2 2915.44 233.229   2
  -8   7  -3 3618.62 200.029   1
  -8  -7   3 3703.47 231.603   1
  -7  -8   3 3396.34 235.828   1
  -7   8  -3 3585.24 166.769   2
  -8   7  -3 3596.91 191.253   2
  -7  -8   3 3404.13 220.322   2
  -8  -7   3 3566.79 235.647   2
  -7   8  -3 3570.31 207.060   1
   7   8   3 3347.94 256.622   2
   8   7   3 3644.89 268.881   2
  -7   8  -4 7678.82 335.661   1
  -7   8  -4 7188.94 239.770   2
  -8   7  -4 7523.23 323.672   1
  -8   7  -4 7556.22 284.791   2
  -7  -8   4 6755.20 340.451   1
  -7  -8   4 7194.62 325.183   2
   7   8   4 6822.42 369.666   2
  -8  -7   4 7067.00 338.339   2
   8   7   4 7335.98 391.065   2
  -7   8  -5 777.762 134.050   1
  -7  -8   5 842.749 141.063   2
  -8  -7   5 821.709 149.260   2
  -8   7  -5 730.311 129.264   1
  -8  -7   5 609.864 134.396   1
  -8  -7   6 4379.47 274.989   2
  -7   8  -6 3864.93 268.610   1
  -8   7  -6 3916.05 264.208   1
  -7   8  -7 2929.01 244.274   1
  -8   7  -7 2562.35 231.779   1
  -8  -8  -5 180.077 143.512   2
  -8  -8  -4 7436.76 400.826   2
  -8  -8  -3 841.153 163.297   2
  -8  -8  -2 47.7996 113.529   2
  -8  -8  -1 2595.70 222.109   2
  -8  -8   0 765.111 142.124   1
  -8  -8   0 701.855 141.697   2
  -8  -8   1 2810.44 218.632   2
  -8  -8   1 2696.66 210.241   1
  -8   8  -2 73.3472 68.5357   1
  -8  -8   2-9.50464 106.558   2
  -8   8  -2 159.001 78.4114   2
  -8  -8   2 21.1441 93.8753   1
  -8   8  -3 893.320 101.725   2
  -8  -8   3 943.636 151.341   1
  -8  -8   3 1191.46 150.836   2
   8   8   3 1060.28 178.732   2
  -8   8  -3 959.079 115.736   1
  -8   8  -4 7768.65 333.506   1
  -8  -8   4 6627.84 330.221   2
  -8   8  -5 283.344 115.601   1
  -8  -8   5 207.975 118.381   2
  -8   8  -6 1783.80 188.757   1
  -8   8  -7 165.793 125.723   1
   0   9   0 35212.0 868.150   2
   0  -9   0 35813.6 944.211   1
  -9   0   0 34586.9 983.984   2
   0  -9   1 4861.56 250.932   1
   0   9   1 5204.62 236.214   2
   0  -9  -1 5461.01 262.498   1
  -9   0   1 5398.22 194.936   1
   0   9  -1 5678.92 187.112   2
  -9   0  -1 5826.34 294.970   2
   0   9   2 32893.4 893.782   2
  -9   0   2 33803.6 788.965   1
   0  -9   2 33495.3 911.362   1
  -9   0  -2 31622.1 925.387   2
   0  -9   3 19194.7 615.204   1
   0   9   3 18959.8 616.516   2
  -9   0  -3 20715.7 650.032   2
   0   9   4 56960.4 1456.91   2
  -9   0  -4 56181.3 1453.08   2
   0   9  -4 55266.5 1455.27   1
   0  -9   4 56390.6 1440.25   1
   0   9   5 3380.97 257.299   2
  -9   0  -5 3576.89 258.994   2
   0   9  -5 3865.98 267.484   1
  -9   0  -6 21751.4 732.971   2
   0   9  -6 21670.9 739.963   1
  -9   0  -7 2498.10 243.158   2
   0   9  -7 3088.66 261.203   1
  -9   0  -8 8391.81 435.529   2
  -9  -1  -8 8940.58 461.452   2
  -9  -1  -7 1859.49 226.709   2
  -9  -1  -6 12446.3 517.871   2
  -1   9   5 496.461 130.285   2
  -9  -1  -5 246.113 115.722   2
   1   9  -5 330.910 124.626   1
  -1   9   4 21892.4 700.965   2
   1   9  -4 21816.3 712.364   1
  -9  -1  -4 21536.4 708.219   2
  -1   9   3 2069.39 174.731   2
   1  -9   3 2123.70 179.710   1
  -9  -1  -3 2078.34 184.738   2
  -1   9   2 16692.3 517.304   2
  -9   1   2 15156.7 377.962   1
  -9  -1  -2 16040.4 552.374   2
   1  -9   2 16582.6 522.432   1
  -1  -9  -1 913.718 131.612   1
  -1   9   1 1163.17 117.161   2
  -9  -1  -1 1264.34 154.896   2
   1  -9   1 1238.06 126.468   1
  -9   1   1 1032.66 67.2097   1
   1   9  -1 1167.59 89.8765   2
  -1   9   0 53453.9 1249.57   2
  -1  -9   0 54405.8 1342.68   1
   1   9   0 53111.7 1264.10   2
   1  -9   0 52534.6 1314.61   1
   1   9   1 1104.28 120.051   2
   1  -9  -1 1161.35 128.624   1
  -9   1  -1 1092.44 142.819   2
  -9  -1   1 1088.62 94.5877   1
  -1   9  -1 1123.35 72.7298   2
  -1  -9   1 949.026 130.506   1
  -9  -1   2 17466.5 471.679   1
  -1  -9   2 16897.4 554.570   1
   1   9   2 16872.3 542.234   2
  -9   1  -2 17319.0 573.298   2
   1   9   3 2058.49 178.701   2
  -1   9  -3 2245.53 189.494   1
  -9  -1   3 2082.35 124.811   1
  -9   1  -3 1983.16 181.361   2
  -1  -9   3 2314.02 191.939   1
   1   9   4 21972.1 705.327   2
  -1  -9   4 22184.1 693.302   1
  -9   1  -4 22038.6 694.502   2
  -1   9  -4 21679.7 701.727   1
   1   9   5 271.058 128.728   2
  -9   1  -5 367.625 123.773   2
  -1   9  -5 567.445 138.023   1
  -9   1  -6 12320.8 502.434   2
  -1   9  -6 13327.8 535.024   1
   9   1   6 12832.9 526.966   2
  -9   1  -7 1903.47 208.839   2
  -1   9  -7 1773.56 209.386   1
  -9   1  -8 8276.81 421.602   2
  -9  -2  -8 7620.15 431.681   2
  -9  -2  -7 3765.44 290.666   2
   2   9  -7 3788.97 292.836   1
  -9  -2  -6 9149.89 442.241   2
  -9  -2  -5 109.096 125.657   2
  -2   9   5 193.699 120.736   2
  -2   9   4 16357.6 579.032   2
  -9  -2  -4 16363.9 589.301   2
  -2   9   3 2231.38 185.599   2
  -9  -2  -3 2574.65 206.004   2
   2  -9   3 2765.57 193.737   1
   2  -9   2 16508.2 524.055   1
  -2   9   2 16302.1 524.248   2
  -9  -2  -2 15343.6 555.798   2
  -2   9   1 1942.17 142.753   2
   2  -9   1 2227.13 161.342   1
  -2  -9  -1 1938.06 155.612   2
  -2  -9   0 53349.6 1276.71   2
   2  -9   0 53656.0 1298.58   1
  -2   9   0 54093.2 1246.80   2
  -2  -9   0 53882.7 1348.85   1
   2   9   0 50530.7 1267.64   2
  -2  -9   1 1842.13 122.124   2
  -2   9  -1 2022.87 96.4635   2
  -9  -2   1 2114.83 139.643   1
   2   9   1 2328.88 161.769   2
   2  -9  -1 2147.89 159.346   1
  -2  -9   1 2287.35 181.549   1
  -9   2  -1 2326.50 187.644   2
  -9  -2   1 2359.43 201.479   2
  -2  -9   2 16662.7 434.627   2
  -2  -9   2 16279.7 547.124   1
   2  -9  -2 15639.1 505.101   1
   2   9   2 16371.4 533.549   2
  -9   2  -2 16913.5 560.768   2
  -9  -2   2 16706.7 478.090   1
  -2  -9   3 1997.18 86.3072   2
   2   9   3 2568.81 195.389   2
  -2   9  -3 2357.14 191.176   1
  -2  -9   3 2313.66 187.492   1
  -9   2  -3 2568.88 191.999   2
  -9  -2   3 2317.92 140.385   1
  -2  -9   4 16760.0 576.069   1
   2   9   4 17403.8 603.587   2
  -9   2  -4 16033.3 563.404   2
  -2   9  -4 16925.1 584.767   1
  -9  -2   4 17338.6 502.378   1
  -9   2  -5 110.132 103.265   2
   2   9   5 215.393 127.953   2
   9   2   5 253.440 127.750   2
  -2   9  -5 158.249 109.465   1
  -9   2  -6 9077.36 403.430   2
  -2   9  -6 8729.14 423.165   1
  -9   2  -7 3317.11 254.683   2
  -2   9  -7 3768.71 280.738   1
  -9   2  -8 7545.25 396.620   2
  -9  -3  -7 984.699 185.316   2
   3   9  -7 1179.15 191.477   1
  -9  -3  -6 4540.36 310.122   2
   3   9  -6 4340.22 301.627   1
  -3   9   5 110.159 108.701   2
  -9  -3  -5 138.338 131.040   2
  -3   9   4 13599.4 519.914   2
  -9  -3  -4 13541.9 530.900   2
  -3  -9  -3 5524.98 300.955   2
  -3   9   3 5458.28 290.688   2
  -9  -3  -3 5092.89 298.542   2
  -3  -9  -2 5292.18 274.215   2
  -3   9   2 5403.20 266.206   2
   3  -9   2 5754.03 264.247   1
  -3  -9  -1 674.619 114.464   2
  -3   9   1 589.399 91.6645   2
   3  -9   1 599.911 104.313   1
  -9  -3  -1 636.978 141.096   2
  -3   9   0 12864.9 399.349   2
  -3  -9   0 13162.5 431.442   2
   3  -9   0 13617.4 429.313   1
  -3  -9   0 14168.2 492.894   1
  -9   3   0 13254.6 331.662   1
  -9  -3   0 14537.6 511.965   2
   3   9   0 15132.8 450.022   2
  -3  -9   1 619.934 90.7591   2
  -9  -3   1 597.674 96.9189   1
  -3   9  -1 693.611 64.3692   2
   3   9   1 457.040 98.3671   2
  -9  -3   1 618.965 130.827   2
  -9   3  -1 517.609 109.933   2
  -3  -9   1 695.128 119.276   1
   3  -9  -1 761.865 101.447   1
  -3  -9   2 5763.08 291.786   1
  -3  -9   2 5701.28 219.230   2
   3   9   2 5808.21 282.657   2
   3  -9  -2 5766.51 244.552   1
  -9   3  -2 6188.25 293.230   2
  -9  -3   2 5692.09 246.818   1
  -3  -9   3 5442.93 196.493   2
  -9  -3   3 5890.31 247.323   1
  -3   9  -3 5316.58 279.249   1
   3   9   3 5354.91 287.065   2
  -9   3  -3 5160.52 268.967   2
  -9  -3   4 14401.6 454.235   1
  -3  -9   4 13528.8 366.937   2
  -9   3  -4 14157.4 495.019   2
   3   9   4 14216.1 533.860   2
  -3   9  -4 14887.2 521.225   1
  -9   3  -5 141.975 112.280   2
   3   9   5 242.332 128.929   2
   9   3   5 291.304 141.398   2
  -3   9  -5 180.038 108.328   1
  -9   3  -6 5197.21 293.619   2
  -3   9  -6 4659.85 300.105   1
  -9   3  -7 853.599 147.842   2
  -3   9  -7 1002.13 169.056   1
  -9  -4  -7 3924.60 311.767   2
   4   9  -7 3942.51 305.199   1
  -9  -4  -6 5770.02 360.014   2
  -4   9   5 1839.40 208.727   2
  -9  -4  -5 1308.84 187.116   2
  -4   9   4 11848.2 485.057   2
  -9  -4  -4 11765.4 501.521   2
  -4  -9  -4 12652.4 504.365   2
  -4   9   3 9018.62 391.966   2
  -4  -9  -3 9038.63 397.389   2
  -4   9   2 3705.50 220.804   2
  -9  -4  -2 3944.23 264.065   2
  -4  -9  -2 3949.77 239.935   2
  -4   9   1 7521.89 301.052   2
  -4  -9  -1 7315.48 318.063   2
   4  -9   1 7344.76 291.699   1
  -9  -4  -1 6962.78 344.745   2
   4   9   0 15621.6 496.052   2
  -4   9   0 14473.7 448.129   2
  -4  -9   0 15379.1 487.164   2
  -4  -9   0 14382.8 525.440   1
  -9  -4   0 15082.6 540.079   2
   4  -9   0 15562.6 458.640   1
  -9   4  -1 7223.31 330.091   2
  -4   9  -1 7678.72 248.166   2
  -9   4  -1 7406.42 234.297   1
   4  -9  -1 7654.86 276.777   1
  -4  -9   1 7420.82 290.793   2
  -9  -4   1 7474.32 308.442   1
   4   9   1 7208.36 316.581   2
  -9  -4   1 7254.64 349.185   2
  -4  -9   2 4219.39 193.276   2
   4   9   2 3978.10 238.609   2
  -9   4  -2 4617.33 242.421   2
  -9  -4   2 4141.74 213.501   1
   4  -9  -2 3976.82 183.364   1
  -9  -4   2 4188.57 266.396   2
  -9  -4   3 9225.22 347.806   1
  -4  -9   3 9450.45 312.166   2
   4  -9  -3 9383.29 320.334   1
  -4   9  -3 8622.92 372.053   1
   4   9   3 9475.29 403.269   2
  -9   4  -3 9139.43 369.450   2
   9   4   4 12917.8 518.826   2
  -9   4  -4 12157.7 443.365   2
  -4  -9   4 12124.0 364.504   2
   4   9   4 11867.1 489.538   2
  -4   9  -4 12641.7 473.561   1
  -4  -9   4 11603.6 467.116   1
  -9  -4   4 12248.8 427.836   1
  -9   4  -5 1531.06 164.191   2
   4   9   5 1733.19 198.818   2
  -4   9  -5 1549.10 176.672   1
  -9   4  -6 5976.21 307.030   2
  -4   9  -6 5952.69 340.906   1
  -4   9  -7 4417.96 308.341   1
  -9  -5  -6 7797.14 427.178   2
  -5   9   5 5399.70 337.187   2
  -5  -9  -5 5777.21 353.632   2
  -5  -9  -4 19127.8 668.904   2
  -5   9   4 17871.5 643.799   2
  -5  -9  -3 18192.8 617.841   2
  -9  -5  -3 16203.4 610.245   2
  -5  -9  -2 11952.5 462.159   2
  -9  -5  -2 11275.0 470.152   2
  -5  -9  -1 8508.77 362.578   2
  -9  -5  -1 8237.97 382.746   2
  -5  -9   0 24743.7 715.899   2
   5  -9   0 24534.1 654.398   1
  -9  -5   0 25053.6 769.178   2
  -9   5  -1 8770.48 361.260   2
  -9   5  -1 8232.85 249.868   1
  -5  -9   1 8213.55 326.636   2
  -9  -5   1 8136.63 343.194   1
  -9  -5   1 8298.40 382.493   2
   5  -9  -1 8252.18 282.109   1
   5   9   1 8015.75 355.421   2
   5  -9  -2 11253.3 339.362   1
  -5  -9   2 11796.1 392.005   2
  -9   5  -2 11591.4 355.619   1
  -5   9  -2 11058.3 298.409   2
   5   9   2 11528.0 444.245   2
  -9  -5   2 11365.1 415.294   1
  -9   5  -2 11880.2 422.997   2
  -9  -5   2 12013.2 463.788   2
  -5  -9   2 11175.7 443.608   1
  -5   9  -2 9955.42 298.745   2
  -9  -5   3 16821.4 544.342   1
  -9   5  -3 16644.4 509.155   1
  -5  -9   3 16629.3 581.596   1
  -5  -9   3 16889.9 505.171   2
  -5   9  -3 17377.7 561.266   1
  -9   5  -3 17076.0 545.928   2
   5   9   3 16772.7 596.034   2
   5  -9  -3 17299.8 470.397   1
  -9  -5   3 16671.8 593.846   2
  -9   5  -4 18772.2 587.707   2
   5  -9  -4 18889.3 519.882   1
  -9   5  -4 18251.8 578.416   1
  -5  -9   4 19589.0 548.819   2
   5   9   4 19575.9 669.118   2
  -5  -9   4 18179.9 636.575   1
  -5   9  -4 19266.5 631.461   1
  -9  -5   4 19347.6 601.673   1
  -9   5  -5 5729.95 283.704   2
  -9  -5   5 5416.86 282.871   1
  -9   5  -5 5913.02 293.353   1
  -5   9  -5 5770.80 315.153   1
  -9   5  -6 8020.44 345.389   2
  -9   5  -6 7226.54 353.679   1
  -5   9  -6 7512.74 387.423   1
  -5   9  -7 6336.37 366.911   1
  -9   5  -7 6053.80 340.579   1
  -6  -9  -6 4644.95 342.391   2
  -6  -9  -5 1610.41 214.009   2
  -6  -9  -4 10867.7 483.241   2
  -9  -6  -4 10534.0 484.551   2
  -6  -9  -3 8465.69 401.485   2
  -9  -6  -3 8147.74 402.696   2
  -6  -9  -2 7987.31 371.301   2
  -9  -6  -2 7465.56 379.084   2
  -6  -9  -1 6307.70 319.144   2
  -9  -6  -1 6411.57 340.534   2
  -6  -9   0 22165.8 680.918   2
  -6  -9   0 21503.3 708.936   1
  -9  -6   0 21919.9 708.223   2
   6   9   1 6571.26 327.077   2
  -6  -9   1 6608.57 301.441   2
  -9  -6   1 6867.12 321.009   1
  -9   6  -1 6223.43 209.076   1
  -6  -9   1 6003.01 316.704   1
  -9  -6   1 6530.83 330.536   2
  -9   6  -2 7661.42 275.295   1
   6  -9  -2 7408.94 237.726   1
  -6  -9   2 7737.58 320.595   2
  -9  -6   2 7938.94 371.348   2
  -9  -6   2 7418.38 338.730   1
  -6   9  -2 7686.36 248.694   2
  -9   6  -2 7987.00 328.623   2
   6   9   2 7284.76 360.795   2
  -6  -9   2 7543.33 357.188   1
  -9  -6   3 8311.40 352.424   1
  -6  -9   3 8135.31 370.397   1
  -6   9  -3 7157.54 209.587   2
   6  -9  -3 7615.52 236.022   1
  -6  -9   3 7975.73 319.859   2
  -9   6  -3 7705.81 302.234   1
  -6   9  -3 8543.92 345.591   1
  -9   6  -3 8437.11 331.065   2
   6   9   3 8603.18 392.957   2
  -9  -6   3 8374.70 382.385   2
  -9   6  -4 10447.8 382.744   2
  -6  -9   4 10168.8 372.977   2
  -9  -6   4 10155.0 409.821   1
   6   9   4 10817.4 470.921   2
  -6   9  -4 10161.6 417.702   1
  -9   6  -4 10212.6 389.388   1
  -9  -6   4 10570.6 446.042   2
  -9   6  -5 1470.52 144.629   2
  -9  -6   5 1566.84 165.064   1
  -9   6  -5 1510.26 158.721   1
  -6   9  -5 1692.58 183.377   1
  -6   9  -6 4671.88 300.772   1
  -9   6  -6 4769.44 283.927   1
  -9   6  -7 5086.09 312.089   1
  -6   9  -7 5374.56 333.197   1
  -7  -9  -5 982.634 191.741   2
  -9  -7  -5 1076.17 192.240   2
  -7  -9  -4 10082.6 474.702   2
  -9  -7  -4 9882.09 478.476   2
  -7  -9  -3 5705.95 338.211   2
  -9  -7  -3 6440.60 370.504   2
  -7  -9  -2 8371.50 399.719   2
  -9  -7  -2 8856.23 417.042   2
  -7  -9  -1 7392.81 364.207   2
  -9  -7  -1 7246.92 367.530   2
  -7  -9   0 23996.8 734.336   2
  -7  -9   0 23376.4 764.642   1
  -9  -7   0 23751.5 756.588   2
  -7  -9   1 7602.25 348.805   2
  -9  -7   1 7689.06 360.110   1
  -9  -7   1 8182.63 375.787   2
  -7  -9   1 7706.98 372.098   1
  -7  -9   2 8304.78 353.351   2
  -9  -7   2 8318.78 384.870   2
  -9   7  -2 8313.28 294.554   1
  -7   9  -2 7999.47 282.908   2
  -9   7  -2 7992.25 330.442   2
  -7  -9   2 7607.27 369.521   1
   7   9   2 8458.08 402.127   2
  -9   7  -3 5839.49 259.155   1
  -9  -7   3 5785.10 303.615   1
  -7  -9   3 5617.47 315.754   1
  -7  -9   3 5907.65 290.772   2
  -7   9  -3 6361.88 289.638   1
  -9   7  -3 5666.26 265.606   2
  -9  -7   3 6152.53 324.653   2
   7   9   3 6556.94 353.881   2
  -9   7  -4 9644.31 377.688   1
  -9   7  -4 9948.67 361.575   2
  -7  -9   4 10110.7 385.890   2
  -9  -7   4 9256.13 404.524   1
  -7   9  -4 10084.9 408.566   1
  -9  -7   4 9131.30 416.435   2
  -9  -7   5 1240.13 177.609   2
  -9   7  -5 1106.08 143.405   1
  -7   9  -5 1131.44 158.745   1
  -7   9  -6 7129.85 366.504   1
  -9   7  -6 6952.00 355.266   1
  -9  -7   6 6904.61 364.293   2
  -9   7  -7 5091.36 319.602   1
  -8  -9  -5 297.184 166.395   2
  -9  -8  -5 127.713 143.838   2
  -8  -9  -4 12258.0 541.952   2
  -9  -8  -4 11592.5 529.524   2
  -8  -9  -3 1952.09 227.067   2
  -9  -8  -3 1978.17 223.057   2
  -8  -9  -2 2967.87 250.251   2
  -9  -8  -2 3201.88 262.906   2
  -8  -9  -1 232.060 139.342   2
  -9  -8  -1 348.422 143.703   2
  -8  -9   0 5184.40 299.047   2
  -9  -8   0 4930.30 297.892   1
  -9  -8   0 4854.72 297.072   2
  -8  -9   0 4742.15 298.646   1
  -8  -9   1 263.886 123.425   2
  -9  -8   1 484.002 139.304   2
  -9  -8   1 382.143 125.632   1
  -8  -9   1 279.431 121.511   1
  -9   8  -2 2948.44 167.328   1
  -8  -9   2 3498.32 236.888   2
  -9  -8   2 3231.10 237.716   2
  -8   9  -2 3021.62 172.386   2
  -9   8  -2 3141.44 194.003   2
  -9  -8   2 3228.45 239.080   1
  -8  -9   3 2044.75 188.806   2
  -9   8  -3 2207.12 156.653   2
  -8   9  -3 2078.42 165.981   1
  -9  -8   3 2069.67 200.130   2
  -9   8  -3 2063.68 158.748   1
  -9   8  -4 12115.1 441.934   1
  -8  -9   4 11572.7 448.958   2
  -9  -8   4 11182.4 468.315   2
  -8   9  -4 12376.9 457.342   1
  -9   8  -5 210.242 105.461   1
  -9  -8   5 105.988 125.186   2
  -8   9  -5 215.600 111.183   1
  -8   9  -6 3340.45 251.242   1
  -9   8  -6 3387.08 250.718   1
  -9  -9  -4 14726.7 624.492   2
  -9  -9  -3 1749.19 224.089   2
  -9  -9  -2 10816.4 487.655   2
  -9  -9  -1 434.409 172.193   2
  -9  -9   0 19070.9 665.331   2
  -9  -9   1 781.510 165.743   2
  -9  -9   2 10909.3 454.084   2
  -9  -9   3 1525.10 182.048   2
  -9  -9   4 14079.0 527.955   2
   0  10   0 28132.2 729.150   2
   0 -10   0 28725.8 811.707   1
 -10   0   0 28451.2 857.917   2
   0 -10   1 357.048 110.846   1
   0  10   1 423.519 86.8144   2
 -10   0  -1 241.581 107.410   2
   0 -10  -1 488.486 121.453   1
   0  10  -1 464.663 62.2942   2
 -10   0   1 336.517 58.5339   1
   0  10   2 28702.0 803.048   2
 -10   0   2 28460.9 691.898   1
   0 -10   2 29583.4 833.518   1
 -10   0  -2 27602.6 848.884   2
   0 -10   3 21223.7 671.292   1
   0  10   3 20578.0 662.659   2
 -10   0  -3 21523.2 699.089   2
   0  10   4 67393.1 1719.44   2
 -10   0  -4 65838.8 1714.61   2
   0 -10   4 69515.7 1711.78   1
   0  10   5 6577.54 359.688   2
 -10   0  -5 6634.03 352.122   2
   0  10  -5 6298.35 357.026   1
 -10   0  -6 15924.1 612.366   2
   0  10  -6 16257.6 624.664   1
 -10   0  -7 350.138 153.571   2
 -10   0  -8 2957.64 277.916   2
 -10  -1  -7 307.730 162.900   2
 -10  -1  -6 8623.86 431.732   2
   1  10  -6 8331.91 426.515   1
   1  10  -5 470.572 149.648   1
  -1  10   5 706.698 147.452   2
 -10  -1  -5 513.470 145.895   2
  -1  10   4 31469.6 934.095   2
 -10  -1  -4 31743.3 951.445   2
  -1  10   3 6234.10 306.476   2
   1 -10   3 6360.76 309.004   1
 -10  -1  -3 5995.68 329.677   2
  -1  10   2 14923.5 478.306   2
 -10  -1  -2 15635.7 539.147   2
   1 -10   2 14594.4 489.085   1
  -1 -10  -1 364.874 107.771   1
  -1  10   1 210.852 81.2013   2
 -10  -1  -1 132.697 101.071   2
   1 -10   1 170.802 91.2722   1
 -10   1   1 187.233 40.8201   1
 -10   1   0 22614.7 732.770   2
  -1  10   0 22902.1 605.742   2
   1  10   0 22186.0 618.849   2
  -1 -10   0 22920.6 698.092   1
   1 -10   0 23977.2 686.774   1
  -1 -10   1 519.178 121.788   1
 -10  -1   1 125.105 57.5178   1
   1  10   1 240.773 84.4351   2
  -1  10  -1 474.041 53.8540   2
 -10   1  -1 304.750 107.365   2
   1 -10  -1 428.302 109.768   1
 -10  -1   2 15215.1 428.644   1
  -1 -10   2 15296.5 528.104   1
   1 -10  -2 14384.2 498.159   1
   1  10   2 15064.0 503.339   2
 -10   1  -2 14630.9 535.068   2
 -10  -1   3 6072.49 229.115   1
   1  10   3 5954.32 307.805   2
 -10   1  -3 6963.73 335.323   2
  -1 -10   3 6056.22 309.996   1
   1  10   4 30485.3 922.605   2
  -1 -10   4 32157.2 922.985   1
  -1  10  -4 30925.4 935.634   1
 -10   1  -4 31778.2 927.334   2
 -10   1  -5 399.309 132.957   2
   1  10   5 616.089 147.102   2
  -1  10  -5 645.307 149.328   1
 -10   1  -6 8441.63 414.068   2
  -1  10  -6 9224.58 440.202   1
 -10   1  -7 494.638 147.484   2
 -10   1  -8 3340.12 287.845   2
 -10  -2  -7 1406.65 215.763   2
 -10  -2  -6 6490.08 378.763   2
  -2  10   5 752.793 153.822   2
 -10  -2  -5 846.256 169.251   2
  -2  10   4 20043.9 676.472   2
 -10  -2  -4 20353.0 702.158   2
  -2  10   3 8332.07 363.573   2
 -10  -2  -3 8232.11 397.153   2
   2 -10   3 8541.04 368.512   1
   2 -10   2 9395.37 375.680   1
  -2  10   2 9661.95 372.994   2
 -10  -2  -2 9365.27 414.890   2
  -2 -10  -1 1858.89 182.451   1
  -2  10   1 2083.57 148.120   2
   2 -10   1 2012.62 166.501   1
   2 -10   0 18406.0 547.539   1
  -2  10   0 17104.5 483.938   2
  -2 -10   0 18430.1 590.887   1
 -10  -2   1 2157.07 143.142   1
  -2  10  -1 2158.34 100.518   2
   2  10   1 2154.23 163.437   2
   2 -10  -1 2192.19 165.375   1
  -2 -10   1 2211.81 191.172   1
 -10   2  -1 2499.37 203.706   2
 -10  -2   1 2367.41 210.867   2
  -2 -10   2 9176.56 394.103   1
   2  10   2 8892.05 372.765   2
   2 -10  -2 9402.58 361.114   1
 -10   2  -2 9319.51 399.709   2
 -10  -2   2 10023.4 332.829   1
   2  10   3 7901.76 366.372   2
 -10   2  -3 8681.09 377.977   2
  -2 -10   3 7768.47 363.588   1
 -10  -2   3 8855.77 305.875   1
  -2 -10   4 20106.8 674.322   1
   2  10   4 19690.2 678.681   2
 -10   2  -4 20713.5 672.789   2
  -2  10  -4 21372.9 693.556   1
 -10  -2   4 20604.6 583.754   1
 -10   2  -5 729.642 145.886   2
   2  10   5 821.372 164.616   2
  -2  10  -5 842.980 152.090   1
 -10   2  -6 6307.44 341.350   2
  -2  10  -6 6040.86 352.621   1
 -10   2  -7 1081.89 180.906   2
 -10  -3  -6 2255.52 249.716   2
  -3  10   5 1014.72 166.414   2
 -10  -3  -5 789.370 166.317   2
  -3  10   4 14684.0 553.624   2
 -10  -3  -4 14718.7 577.444   2
  -3  10   3 8556.71 376.666   2
 -10  -3  -3 8889.88 413.836   2
  -3 -10  -2 3534.21 233.810   2
  -3  10   2 3651.28 218.817   2
   3 -10   2 3652.48 218.402   1
  -3 -10  -1 240.534 111.974   1
  -3 -10  -1 403.160 100.353   2
  -3  10   1 301.695 78.5272   2
   3 -10   1 299.179 91.3884   1
  -3 -10   0 5158.62 244.869   2
  -3  10   0 5379.00 217.617   2
 -10   3   0 4815.46 147.997   1
   3 -10   0 5638.22 252.244   1
  -3 -10   0 5931.41 299.204   1
 -10  -3   0 5018.19 297.376   2
   3  10   0 6056.24 259.270   2
   3 -10  -1 229.028 79.6897   1
  -3 -10   1 182.499 70.7488   2
  -3  10  -1 242.470 49.0509   2
 -10  -3   1 265.232 81.5431   1
   3  10   1 284.669 93.7697   2
 -10  -3   1 136.999 112.618   2
 -10   3  -1 439.932 113.758   2
  -3 -10   1 231.564 102.217   1
 -10  -3   2 3980.43 269.080   2
  -3 -10   2 3618.64 168.620   2
  -3 -10   2 3838.38 247.710   1
   3  10   2 4368.80 244.861   2
   3 -10  -2 4092.38 208.445   1
 -10   3  -2 3925.64 249.032   2
 -10  -3   2 3744.41 198.458   1
  -3 -10   3 8472.32 261.783   2
 -10  -3   3 8749.87 325.113   1
   3 -10  -3 8795.19 332.103   1
  -3 -10   3 8922.07 390.159   1
   3  10   3 8946.84 395.565   2
 -10   3  -3 8356.92 371.489   2
 -10  -3   4 15790.5 488.466   1
 -10   3  -4 15398.7 545.848   2
  -3  10  -4 15665.0 566.030   1
   3  10   4 14547.6 564.863   2
 -10   3  -5 1008.95 158.064   2
  -3  10  -5 863.736 146.956   1
 -10   3  -6 1978.19 199.446   2
  -3  10  -6 2066.76 215.330   1
 -10   3  -7 228.649 127.425   2
 -10  -4  -6 3265.49 285.737   2
 -10  -4  -5 1759.92 215.524   2
  -4  10   4 13246.7 519.307   2
 -10  -4  -4 12895.7 536.816   2
  -4 -10  -4 12594.8 522.671   2
  -4 -10  -3 10584.4 448.340   2
  -4  10   3 11181.1 443.629   2
  -4 -10  -2 5535.26 296.975   2
  -4  10   2 5542.82 276.157   2
 -10  -4  -2 4942.33 315.568   2
  -4  10   1 2477.61 173.800   2
  -4 -10  -1 2851.73 199.374   2
   4 -10   1 2889.22 180.715   1
 -10  -4  -1 2616.97 221.756   2
  -4  10   0 12760.0 398.013   2
  -4 -10   0 12188.6 432.366   2
  -4 -10   0 12283.0 485.127   1
 -10  -4   0 12837.1 503.545   2
   4 -10   0 12849.6 418.293   1
  -4 -10   1 2905.78 177.310   2
  -4  10  -1 2932.27 132.701   2
   4 -10  -1 2830.06 169.385   1
 -10  -4   1 2982.88 189.618   1
  -4 -10   1 2785.82 216.929   1
 -10  -4   1 3202.87 237.141   2
   4  10   1 3065.84 206.300   2
 -10   4  -1 2770.18 214.197   2
 -10   4  -1 2985.70 128.531   1
  -4 -10   2 5677.38 239.277   2
   4  10   2 5757.68 300.835   2
 -10   4  -2 6013.25 305.970   2
 -10  -4   2 5616.35 265.167   1
 -10   4  -2 5601.98 224.884   1
 -10  -4   2 5993.53 329.276   2
   4 -10  -2 6064.95 250.467   1
 -10  -4   3 10045.5 456.978   2
  -4 -10   3 10396.9 338.885   2
 -10  -4   3 10922.3 391.604   1
  -4  10  -3 11158.5 442.624   1
 -10   4  -3 11241.3 433.158   2
   4  10   3 10729.0 449.874   2
   4 -10  -3 11351.1 372.708   1
 -10  -4   4 12708.9 444.256   1
   4 -10  -4 12516.0 422.063   1
 -10   4  -4 13535.3 486.148   2
  -4  10  -4 12793.9 500.041   1
   4  10   4 12848.6 516.755   2
 -10   4  -5 2156.82 188.820   2
  -4  10  -5 2027.42 204.829   1
 -10   4  -6 3162.21 231.750   2
  -4  10  -6 3420.19 267.811   1
 -10  -5  -5 3621.03 297.848   2
  -5 -10  -5 3323.35 280.895   2
  -5 -10  -4 18378.8 656.541   2
  -5  10   4 16669.9 623.673   2
  -5  10   3 14918.8 547.324   2
  -5 -10  -3 15961.7 581.374   2
  -5  10   2 11271.0 437.850   2
  -5 -10  -2 11476.9 461.970   2
 -10  -5  -2 12392.3 502.212   2
  -5  10   1 6213.57 283.449   2
  -5 -10  -1 6374.55 312.793   2
 -10  -5  -1 5677.47 330.366   2
  -5  10   0 17398.1 530.311   2
  -5 -10   0 18773.9 585.725   2
   5 -10   0 17928.5 528.417   1
 -10  -5   0 19424.9 652.483   2
 -10   5  -1 5756.95 193.158   1
  -5  10  -1 6637.54 232.599   2
  -5 -10   1 6145.48 277.624   2
 -10  -5   1 5529.12 282.639   1
 -10  -5   1 6294.32 336.736   2
   5 -10  -1 6521.53 251.504   1
   5  10   1 6333.50 312.513   2
 -10   5  -1 6057.76 314.756   2
  -5 -10   2 12064.5 405.000   2
   5 -10  -2 11821.7 363.893   1
  -5  10  -2 10547.4 279.428   2
 -10   5  -2 12194.6 361.833   1
 -10   5  -2 12389.6 453.657   2
   5  10   2 12250.1 468.154   2
 -10  -5   2 12018.2 431.020   1
 -10  -5   2 12275.0 488.789   2
 -10   5  -3 15230.1 464.303   1
 -10  -5   3 14743.9 500.238   1
  -5 -10   3 14114.7 538.100   1
  -5 -10   3 14925.6 454.880   2
  -5  10  -3 14749.1 524.084   1
 -10   5  -3 13827.1 505.977   2
   5  10   3 14661.1 553.436   2
   5 -10  -3 14499.4 433.623   1
 -10  -5   3 14521.7 562.199   2
 -10  -5   4 19268.0 669.182   2
 -10   5  -4 17409.0 561.965   1
 -10   5  -4 17867.4 588.899   2
  -5  10  -4 18259.8 621.481   1
   5  10   4 17880.8 652.671   2
 -10  -5   4 17928.4 584.641   1
 -10   5  -5 3607.64 235.597   2
 -10   5  -5 3466.49 226.174   1
  -5  10  -5 3287.32 251.633   1
 -10  -5   5 3474.32 228.487   1
 -10   5  -6 5237.68 301.118   1
  -5  10  -6 6353.21 353.999   1
 -10   5  -7 3628.61 268.352   1
  -6 -10  -5 329.269 166.392   2
  -6 -10  -4 8361.31 428.573   2
 -10  -6  -4 8246.54 436.257   2
  -6 -10  -3 5609.00 329.626   2
 -10  -6  -3 5536.22 344.827   2
  -6 -10  -2 7550.34 375.566   2
 -10  -6  -2 7685.81 396.028   2
  -6 -10  -1 6817.53 336.671   2
 -10  -6  -1 6854.94 366.327   2
  -6 -10   0 18596.7 603.299   2
 -10  -6   0 17985.8 640.207   2
  -6 -10   1 6574.89 310.576   2
 -10   6  -1 6348.89 200.666   1
 -10  -6   1 6695.60 323.290   1
 -10  -6   1 6164.42 342.954   2
  -6 -10   1 7028.41 354.021   1
 -10   6  -1 7120.08 335.967   2
 -10   6  -2 7365.52 263.122   1
  -6 -10   2 7398.26 317.589   2
  -6  10  -2 7372.13 231.089   2
 -10  -6   2 7565.39 377.339   2
 -10   6  -2 7593.31 340.660   2
 -10  -6   2 7639.13 341.952   1
   6  10   2 7446.02 372.841   2
 -10  -6   3 5816.11 290.829   1
  -6 -10   3 5232.94 257.712   2
  -6  10  -3 5637.98 291.978   1
 -10   6  -3 5557.62 246.256   1
 -10   6  -3 5356.21 280.892   2
   6  10   3 5234.56 318.613   2
 -10  -6   3 5309.59 323.395   2
 -10   6  -4 8190.68 347.073   2
  -6  10  -4 8094.83 368.199   1
 -10  -6   4 7827.88 353.216   1
 -10   6  -4 7607.70 327.769   1
 -10  -6   4 8247.76 400.571   2
 -10   6  -5 454.251 112.038   1
 -10  -6   5 444.747 164.883   2
  -6  10  -5 384.339 130.235   1
 -10  -6   5 316.327 118.771   1
 -10   6  -6 4383.61 273.786   1
  -6  10  -6 4231.38 291.559   1
 -10   6  -7 3302.76 258.495   1
  -7 -10  -5 157.875 147.144   2
  -7 -10  -4 8171.09 433.288   2
 -10  -7  -4 8109.59 436.579   2
  -7 -10  -3 1947.33 221.925   2
 -10  -7  -3 1994.49 223.536   2
  -7 -10  -2 10799.2 471.774   2
 -10  -7  -2 10870.0 492.953   2
  -7 -10  -1 5809.49 321.372   2
 -10  -7  -1 5902.96 344.758   2
  -7 -10   0 32117.2 913.898   2
 -10  -7   0 30685.1 928.083   1
 -10  -7   0 30308.7 937.911   2
  -7 -10   1 5973.12 307.000   2
 -10  -7   1 5653.83 326.181   2
 -10  -7   1 5912.73 314.200   1
 -10   7  -1 5801.45 302.554   2
  -7 -10   2 11258.6 430.093   2
 -10  -7   2 10851.1 466.921   2
 -10   7  -2 10952.2 422.356   2
 -10  -7   2 10754.0 442.715   1
   7  10   2 11517.2 486.497   2
 -10   7  -3 2341.47 156.955   1
 -10  -7   3 2263.19 199.983   1
 -10  -7   3 2339.27 220.900   2
  -7  10  -3 2307.67 192.693   1
  -7 -10   3 2063.17 179.104   2
 -10   7  -3 2215.62 177.136   2
 -10   7  -4 7825.29 328.899   1
  -7  10  -4 8070.75 363.801   1
 -10  -7   4 7348.66 378.452   2
 -10  -7   5 330.888 143.591   2
  -7  10  -5 208.064 126.111   1
 -10   7  -5 249.099 99.9559   1
  -7  10  -6 7406.19 387.943   1
  -8 -10  -4 8937.24 463.441   2
  -8 -10  -3 309.677 149.123   2
 -10  -8  -3 392.790 154.889   2
  -8 -10  -2 5874.78 352.114   2
 -10  -8  -2 5759.66 358.426   2
  -8 -10  -1 214.960 135.872   2
 -10  -8  -1 525.322 170.339   2
  -8 -10   0 11504.1 471.204   2
 -10  -8   0 10440.6 478.953   2
  -8 -10   1 262.354 128.004   2
 -10  -8   1 230.013 130.794   2
 -10   8  -1 277.005 124.740   2
  -8 -10   2 5783.28 305.695   2
 -10  -8   2 5526.92 321.772   2
 -10   8  -2 5324.08 272.768   2
  -8  10  -3 441.057 119.571   1
  -8 -10   3 359.752 129.080   2
 -10  -8   3 419.568 152.809   2
  -8  10  -4 8872.42 381.860   1
 -10  -8   4 8496.34 409.712   2
  -8  10  -5 250.145 129.296   1
  -9 -10  -3 357.451 176.135   2
 -10  -9  -3 638.426 187.654   2
  -9 -10  -2 9568.54 469.262   2
 -10  -9  -2 10256.4 489.494   2
  -9 -10  -1 999.614 186.160   2
 -10  -9  -1 1297.51 202.608   2
  -9 -10   0 21387.4 721.833   2
 -10  -9   0 20652.5 725.984   2
  -9 -10   1 1159.09 185.885   2
 -10  -9   1 1069.30 187.021   2
 -10   9  -1 1295.13 155.550   2
  -9 -10   2 9557.13 423.262   2
 -10  -9   2 9742.61 443.315   2
 -10  -9   3 826.915 175.595   2
 -10 -10  -2 6230.53 385.166   2
 -10 -10  -1 3295.41 288.119   2
 -10 -10   0 19459.3 698.450   2
 -10 -10   1 3266.42 264.418   2
 -10 -10   2 5919.18 340.164   2
   0  11   0 44253.5 1092.29   2
   0 -11   0 46061.3 1196.86   1
 -11   0   0 45176.6 1248.90   2
   0 -11   1 9284.93 394.364   1
   0  11   1 9483.53 355.423   2
   0 -11  -1 9226.88 393.995   1
 -11   0   1 9399.38 295.468   1
 -11   0  -1 9416.04 430.737   2
   0  11   2 25203.9 732.321   2
   0 -11  -2 24223.5 750.182   1
   0 -11   2 24798.3 759.600   1
 -11   0   2 24472.3 610.902   1
 -11   0  -2 25335.7 799.012   2
   0 -11   3 13518.9 515.264   1
   0  11   3 14034.2 512.650   2
 -11   0  -3 13802.3 544.294   2
   0  11   4 30859.7 919.668   2
 -11   0  -4 30203.0 934.826   2
 -11   0  -5 6300.47 360.970   2
 -11   0  -6 17131.5 649.817   2
   0  11  -6 16674.9 663.002   1
 -11   0  -7 7560.40 415.076   2
 -11  -1  -6 11245.8 510.672   2
 -11  -1  -5 1213.59 193.457   2
  -1  11   4 13087.3 514.617   2
 -11  -1  -4 12244.7 524.642   2
  -1  11   3 5096.50 287.881   2
   1 -11   3 4687.81 277.339   1
 -11  -1  -3 5581.45 323.297   2
  -1  11   2 11272.9 425.207   2
  -1 -11  -2 11750.6 466.372   1
 -11  -1  -2 11312.8 480.792   2
   1 -11   2 12254.0 456.194   1
   1 -11   1 6844.04 326.711   1
  -1  11   1 7041.32 293.957   2
  -1 -11  -1 6892.17 340.202   1
 -11  -1  -1 7896.94 386.205   2
   1 -11   0 34333.8 936.056   1
  -1  11   0 32639.4 840.388   2
   1  11   0 33415.0 863.427   2
  -1 -11   0 34154.8 958.613   1
 -11   1   0 34905.1 1010.61   2
  -1 -11   1 7131.10 339.709   1
   1  11   1 7175.09 300.268   2
 -11  -1   1 6966.69 261.978   1
   1 -11  -1 6982.12 324.444   1
 -11   1  -1 7642.35 369.497   2
 -11  -1   2 11145.1 349.644   1
  -1 -11   2 11510.5 454.752   1
   1  11   2 11075.4 424.232   2
   1 -11  -2 11821.4 439.575   1
 -11   1  -2 11110.1 465.171   2
 -11  -1   3 4639.61 192.308   1
   1  11   3 4690.99 276.652   2
 -11   1  -3 4420.84 286.658   2
  -1 -11   3 4723.45 281.555   1
   1  11   4 13231.6 523.143   2
 -11   1  -4 12955.0 518.157   2
  -1  11  -5 1351.61 186.588   1
 -11   1  -5 1228.73 187.715   2
 -11   1  -6 12060.4 514.740   2
  -1  11  -6 11739.7 526.954   1
 -11   1  -7 6485.92 378.635   2
 -11  -2  -6 11080.0 514.965   2
 -11  -2  -5 1218.11 192.031   2
  -2  11   4 9305.06 421.684   2
 -11  -2  -4 9301.89 450.152   2
  -2  11   3 4772.41 271.331   2
 -11  -2  -3 4673.31 304.291   2
   2 -11   3 4391.68 273.591   1
   2 -11   2 10270.7 406.046   1
  -2  11   2 9692.55 384.722   2
 -11  -2  -2 9491.10 439.998   2
  -2  11   1 8756.48 340.765   2
  -2 -11  -1 9492.07 410.143   1
   2 -11   1 9190.38 374.599   1
   2 -11   0 34181.5 929.243   1
  -2  11   0 33678.2 847.752   2
  -2 -11   0 35182.1 982.389   1
   2  11   0 32732.5 879.945   2
 -11   2   0 34730.6 1011.16   2
 -11  -2   1 8977.34 326.497   1
  -2  11  -1 8383.69 246.411   2
   2  11   1 9649.64 361.396   2
 -11   2  -1 8776.65 407.397   2
   2 -11  -1 9413.20 365.824   1
 -11  -2   1 9165.67 431.272   2
  -2 -11   1 8811.50 393.921   1
 -11  -2   2 10172.0 462.696   2
 -11  -2   2 9593.86 333.777   1
  -2 -11   2 9227.59 411.337   1
   2  11   2 9588.36 390.948   2
   2 -11  -2 9912.87 382.149   1
 -11   2  -2 9943.31 427.307   2
   2 -11  -3 4692.85 256.449   1
   2  11   3 4624.81 278.342   2
 -11   2  -3 4898.84 289.563   2
  -2 -11   3 4203.56 274.312   1
 -11  -2   3 4398.41 206.178   1
 -11   2  -4 9732.00 431.123   2
   2  11   4 9713.28 437.898   2
  -2  11  -5 1274.00 183.863   1
 -11   2  -5 1277.10 179.722   2
 -11   2  -6 11474.4 495.813   2
  -2  11  -6 11279.0 512.803   1
 -11   2  -7 7933.26 412.455   2
 -11  -3  -5 577.841 168.041   2
  -3  11   4 9898.56 439.997   2
 -11  -3  -4 9992.08 473.257   2
  -3  11   3 3584.67 236.580   2
 -11  -3  -3 3257.53 266.925   2
  -3  11   2 6703.24 306.362   2
   3 -11   2 6225.99 304.863   1
  -3  11   1 3411.78 199.079   2
  -3 -11  -1 3216.27 238.694   1
   3 -11   1 3289.49 211.978   1
  -3 -11  -1 3010.55 206.898   2
  -3 -11   0 21484.0 585.810   2
  -3  11   0 20479.5 532.387   2
   3 -11   0 20631.6 588.192   1
  -3 -11   0 20871.7 655.550   1
 -11  -3   0 21441.4 696.704   2
   3  11   0 20829.6 585.159   2
  -3 -11   1 3109.02 175.375   2
   3 -11  -1 3096.78 194.977   1
  -3  11  -1 2748.18 117.786   2
 -11  -3   1 3105.54 188.091   1
   3  11   1 3312.87 208.627   2
 -11  -3   1 3094.24 250.702   2
  -3 -11   1 3617.82 246.612   1
 -11   3  -1 3200.07 238.143   2
  -3 -11   2 6090.68 237.094   2
  -3 -11   2 6810.28 346.758   1
   3  11   2 6647.61 324.066   2
 -11   3  -2 6734.83 345.262   2
   3 -11  -2 7447.65 305.237   1
 -11  -3   2 7013.17 287.563   1
 -11  -3   2 7177.41 383.040   2
 -11  -3   3 3597.77 199.613   1
   3 -11  -3 3911.05 220.584   1
   3  11   3 3902.93 258.087   2
 -11   3  -3 3792.97 258.944   2
   3 -11  -4 10934.6 406.249   1
 -11   3  -4 10596.2 446.431   2
   3  11   4 10554.4 467.033   2
  -3  11  -5 959.421 173.093   1
 -11   3  -5 1325.55 176.525   2
 -11   3  -6 6479.68 357.474   2
  -3  11  -6 7439.40 401.395   1
 -11  -4  -5 2864.79 272.606   2
  -4  11   4 12686.0 513.433   2
 -11  -4  -4 12162.5 539.759   2
  -4  11   3 7528.29 354.586   2
  -4 -11  -3 7387.68 372.813   2
  -4 -11  -2 9633.12 409.626   2
  -4  11   2 9283.74 383.240   2
  -4 -11  -1 4833.01 268.777   2
  -4  11   1 4608.77 237.605   2
  -4 -11  -1 5162.46 309.112   1
   4 -11   1 4833.49 250.068   1
 -11  -4  -1 5143.51 315.049   2
  -4 -11   0 20298.0 623.460   2
  -4  11   0 19936.1 564.695   2
  -4 -11   0 20792.0 691.291   1
 -11  -4   0 19849.3 698.983   2
   4 -11   0 20438.7 604.454   1
  -4 -11   1 4904.49 239.588   2
   4 -11  -1 5057.31 241.183   1
 -11  -4   1 5214.54 259.072   1
 -11   4  -1 5058.11 174.180   1
 -11  -4   1 4864.18 316.116   2
  -4 -11   1 5029.68 303.028   1
   4  11   1 4858.46 271.077   2
 -11   4  -1 5179.08 298.949   2
   4 -11  -2 9311.20 343.630   1
  -4 -11   2 9364.55 327.392   2
 -11   4  -2 8874.69 307.641   1
 -11   4  -2 9927.05 419.457   2
   4  11   2 9221.84 404.272   2
 -11  -4   2 9441.94 446.645   2
 -11  -4   2 9525.96 365.617   1
 -11  -4   3 7312.27 309.029   1
 -11   4  -3 7484.87 358.606   2
   4  11   3 7376.78 367.331   2
 -11  -4   3 7175.57 397.220   2
 -11  -4   4 13335.4 457.787   1
  -4  11  -4 12782.0 518.213   1
 -11   4  -4 13097.3 502.517   2
 -11   4  -5 2494.16 217.659   2
  -4  11  -5 2761.77 237.105   1
  -4  11  -6 8872.41 443.491   1
  -5 -11  -4 20523.7 733.778   2
  -5  11   4 20337.9 713.579   2
  -5 -11  -3 11905.1 493.751   2
  -5  11   3 11447.8 465.932   2
 -11  -5  -3 10537.7 505.903   2
  -5 -11  -2 13947.5 529.312   2
  -5  11   2 13797.1 498.036   2
 -11  -5  -2 13234.5 555.302   2
  -5  11   1 9614.72 372.314   2
  -5 -11  -1 9519.56 403.600   2
 -11  -5  -1 9541.82 451.059   2
  -5  11   0 25153.2 697.902   2
  -5 -11   0 26673.0 767.870   2
   5 -11   0 26013.2 714.083   1
 -11  -5   0 25790.5 836.205   2
  -5 -11   1 9845.12 372.745   2
 -11  -5   1 9620.99 390.755   1
 -11  -5   1 9557.19 443.619   2
   5 -11  -1 9581.75 341.433   1
 -11   5  -1 9960.54 426.679   2
   5  11   1 8480.38 392.764   2
  -5 -11   2 13581.6 443.077   2
 -11   5  -2 12905.4 390.016   1
 -11   5  -2 14295.7 518.845   2
 -11  -5   2 12235.6 523.401   2
   5  11   2 13333.3 516.207   2
 -11  -5   2 13356.2 475.266   1
 -11   5  -3 10919.4 376.509   1
 -11  -5   3 10547.8 412.545   1
 -11   5  -3 11027.1 445.200   2
   5  11   3 11626.7 489.036   2
 -11  -5   3 11506.0 503.708   2
 -11   5  -4 19847.4 608.603   1
  -5  11  -4 19936.3 685.203   1
 -11   5  -4 19689.2 653.860   2
 -11  -5   4 20061.3 635.089   1
 -11  -5   4 20992.5 737.762   2
 -11   5  -5 4997.66 288.069   2
 -11   5  -5 4981.48 271.360   1
  -5  11  -5 4685.40 304.353   1
 -11   5  -6 12453.8 490.812   1
  -5  11  -6 12815.8 541.520   1
  -6 -11  -5 1751.07 242.490   2
  -6 -11  -4 13152.4 567.857   2
 -11  -6  -4 13503.0 591.896   2
  -6  11   3 4926.29 299.215   2
  -6 -11  -3 5678.58 346.814   2
 -11  -6  -3 5174.96 345.503   2
  -6  11   2 10614.2 435.531   2
  -6 -11  -2 11653.1 477.573   2
 -11  -6  -2 10581.8 494.225   2
  -6  11   1 5254.40 270.509   2
  -6 -11  -1 5462.35 305.102   2
 -11  -6  -1 5821.42 346.947   2
  -6 -11   0 26345.4 785.540   2
 -11  -6   0 25231.1 841.939   2
  -6 -11   1 5789.15 292.388   2
 -11  -6   1 5662.41 299.451   1
 -11  -6   1 5356.49 337.261   2
 -11   6  -1 5918.49 322.637   2
  -6 -11   2 11040.3 408.076   2
 -11  -6   2 10179.5 478.397   2
 -11   6  -2 10937.7 445.262   2
 -11  -6   2 11610.6 447.339   1
   6  11   2 12060.5 491.477   2
 -11  -6   3 5271.50 284.115   1
 -11   6  -3 5563.06 296.345   2
 -11  -6   3 4720.65 323.813   2
  -6  11  -4 12704.5 506.488   1
 -11   6  -4 12540.7 474.097   2
 -11  -6   4 13153.7 486.405   1
 -11  -6   4 12975.8 545.159   2
  -6  11  -5 2096.44 209.599   1
 -11  -6   5 1646.21 223.749   2
 -11  -6   6 10408.9 500.945   2
  -7 -11  -4 16448.3 658.044   2
  -7 -11  -3 3266.15 274.390   2
  -7  11   3 3267.91 256.095   2
  -7 -11  -2 14944.3 579.722   2
 -11  -7  -2 14252.5 595.493   2
  -7 -11  -1 3513.81 258.986   2
 -11  -7  -1 3837.32 286.596   2
  -7 -11   0 30099.0 879.245   2
 -11  -7   0 27888.6 911.288   2
  -7 -11   1 3403.85 241.419   2
 -11  -7   1 3315.05 278.015   2
 -11  -7   1 3353.08 246.304   1
 -11   7  -1 3622.75 254.279   2
  -7 -11   2 15247.1 524.422   2
 -11  -7   2 14983.5 585.785   2
 -11   7  -2 14335.2 528.268   2
 -11   7  -3 3730.15 240.524   2
 -11  -7   3 3662.80 282.506   2
  -7  11  -4 15292.0 558.284   1
 -11  -7   4 14265.6 578.379   2
  -7  11  -5 1213.72 180.619   1
 -11  -7   5 1651.49 225.123   2
  -8 -11  -3 1722.38 227.934   2
  -8 -11  -2 6888.53 383.364   2
 -11  -8  -2 7027.32 406.645   2
  -8 -11  -1-12.6343 131.622   2
 -11  -8  -1 85.1978 150.247   2
  -8 -11   0 10105.6 442.515   2
 -11  -8   0 9401.87 464.143   2
  -8 -11   1 88.0335 125.039   2
 -11  -8   1 92.7716 132.136   2
 -11   8  -1 63.1659 106.167   2
 -11  -8   2 6853.01 377.518   2
 -11  -8   3 1738.14 215.459   2
 -11  -8   4 13157.5 541.049   2
  -9 -11  -2 9801.84 477.767   2
  -9 -11  -1 1980.36 230.380   2
 -11  -9  -1 2111.75 249.660   2
  -9 -11   0 13381.8 548.849   2
 -11  -9   0 14478.1 582.607   2
  -9 -11   1 2278.85 229.686   2
 -11  -9   1 2007.83 234.681   2
 -11  -9   2 9130.80 443.638   2
 -11  -9   3 3186.21 269.499   2
 -10 -11   0 15975.5 627.937   2
 -11 -10   1 2922.43 268.707   2
 -11 -10   2 7815.85 408.521   2
   0  12   0 20802.1 576.601   2
 -12   0   0 20979.8 732.201   2
   0 -12   0 19780.7 666.218   1
   0 -12   1 7552.87 364.139   1
   0  12   1 8035.35 320.761   2
   0 -12  -1 7744.21 367.005   1
 -12   0  -1 7458.44 401.581   2
 -12   0   1 7575.57 411.395   2
   0  12   2 17032.1 567.776   2
   0 -12  -2 17251.4 599.365   1
   0 -12   2 16830.7 603.089   1
 -12   0  -2 18079.7 653.941   2
   0 -12  -3 18576.0 637.988   1
   0  12   3 18044.4 623.173   2
 -12   0  -3 18831.3 680.546   2
   0  12   4 22713.8 762.643   2
 -12   0  -4 23536.5 792.696   2
 -12   0  -5 4482.93 323.492   2
 -12   0  -6 8724.16 451.484   2
 -12  -1  -5 1449.53 211.817   2
  -1  12   4 9914.15 448.864   2
 -12  -1  -4 9968.50 470.529   2
  -1  12   3 5308.01 295.567   2
 -12  -1  -3 5466.70 340.517   2
  -1  12   2 6741.68 320.977   2
  -1 -12  -2 7922.00 374.109   1
 -12  -1  -2 7195.17 388.619   2
   1 -12   2 7611.87 357.458   1
 -12   1   1 5581.07 347.990   2
   1 -12   1 4757.57 279.315   1
  -1  12   1 5009.02 245.174   2
  -1 -12  -1 5270.79 304.123   1
 -12  -1  -1 4927.00 319.187   2
   1 -12   0 20454.0 641.582   1
 -12  -1   0 18622.5 687.766   2
   1  12   0 17936.3 550.711   2
  -1 -12   0 20322.8 664.177   1
 -12   1   0 20753.0 712.177   2
  -1 -12   1 5657.86 310.526   1
   1  12   1 5390.33 258.066   2
 -12  -1   1 4890.76 215.500   1
 -12   1  -1 5166.43 323.761   2
   1 -12  -1 5091.01 284.690   1
   1  12   2 7360.97 337.932   2
   1 -12  -2 7353.71 349.150   1
 -12   1  -2 7783.79 392.865   2
   1 -12  -3 4738.77 280.704   1
   1  12   3 4433.99 276.336   2
 -12   1  -3 5056.14 319.987   2
   1  12   4 10306.7 458.799   2
 -12   1  -4 9996.42 465.054   2
 -12   1  -5 1495.63 205.103   2
 -12   1  -6 6824.54 390.133   2
 -12  -2  -5 830.652 180.611   2
  -2  12   4 9421.76 430.573   2
 -12  -2  -4 9380.47 464.040   2
  -2  12   3 4181.01 264.642   2
 -12  -2  -3 3871.11 295.467   2
   2 -12   3 4440.19 273.728   1
   2 -12   2 9056.20 389.473   1
  -2  12   2 8535.32 362.010   2
  -2 -12  -2 8245.79 404.663   1
 -12  -2  -2 8575.95 428.596   2
  -2  12   1 4494.19 230.370   2
  -2 -12  -1 4776.56 292.972   1
   2 -12   1 4452.96 266.530   1
 -12  -2  -1 4649.67 314.112   2
   2 -12   0 21860.3 663.204   1
  -2 -12   0 21959.9 712.794   1
   2  12   0 19995.7 604.265   2
 -12   2   0 20396.3 728.886   2
   2 -12  -1 4657.62 262.670   1
 -12  -2   1 4523.81 220.302   1
   2  12   1 4495.50 252.015   2
 -12   2  -1 4708.56 302.290   2
 -12  -2   1 4683.73 324.885   2
   2  12   2 8836.26 380.839   2
 -12   2  -2 8669.08 418.462   2
   2 -12  -2 9062.92 376.402   1
 -12  -2   2 8555.46 449.972   2
   2  12   3 4323.30 274.938   2
 -12   2  -3 4178.02 284.469   2
   2 -12  -3 3812.42 246.012   1
 -12   2  -4 9453.05 441.897   2
 -12   2  -5 1025.21 181.087   2
 -12   2  -6 5582.29 348.910   2
  -3  12   4 8284.54 403.858   2
 -12  -3  -4 7914.14 433.269   2
  -3  12   3 4373.28 268.586   2
 -12  -3  -3 3996.13 303.514   2
  -3  12   2 6291.45 299.505   2
   3 -12   2 5935.62 308.789   1
   3 -12   1 1719.15 172.874   1
   3 -12   0 10219.9 403.926   1
 -12  -3   0 10655.5 489.666   2
 -12   3   0 11514.2 494.498   2
   3 -12  -1 1386.79 153.456   1
 -12  -3   1 1213.56 189.387   2
   3  12   1 1668.72 162.525   2
 -12   3  -1 1727.90 197.492   2
 -12  -3   1 1584.81 142.778   1
 -12  -3   2 5881.11 262.433   1
   3  12   2 5569.64 303.917   2
 -12   3  -2 5754.90 333.000   2
 -12  -3   2 5810.08 362.923   2
   3 -12  -2 6027.64 286.140   1
 -12  -3   3 3985.32 310.540   2
 -12   3  -3 4339.16 286.555   2
   3  12   3 3967.88 270.501   2
 -12   3  -4 9158.01 429.507   2
 -12   3  -5 523.502 148.166   2
 -12   3  -6 3440.14 272.881   2
 -12  -4  -4 11024.0 521.172   2
  -4  12   3 3911.12 258.649   2
  -4  12   2 6946.02 323.806   2
  -4 -12  -1 3792.84 248.293   2
   4 -12   1 3576.93 228.756   1
 -12  -4  -1 3867.80 294.331   2
 -12   4   0 17056.1 632.372   2
  -4 -12   0 16550.4 543.229   2
 -12  -4   0 16179.7 633.081   2
   4 -12   0 16137.6 531.802   1
   4 -12  -1 4128.20 225.247   1
 -12  -4   1 3515.99 221.650   1
 -12  -4   1 3583.18 292.298   2
 -12   4  -1 3966.53 280.957   2
   4  12   1 3237.00 229.544   2
 -12   4  -2 7539.74 372.400   2
   4  12   2 6851.08 347.320   2
 -12  -4   2 6784.98 390.482   2
 -12  -4   2 6995.23 307.747   1
 -12   4  -3 5255.59 307.151   2
   4  12   3 4646.63 300.371   2
 -12  -4   3 4487.67 331.342   2
 -12  -4   4 10669.9 513.800   2
 -12   4  -4 10496.3 455.002   2
 -12   4  -5 1405.32 186.411   2
  -5 -12  -3 7730.31 401.335   2
  -5 -12  -2 15505.8 574.958   2
 -12  -5  -2 13984.7 596.901   2
  -5 -12  -1 4001.61 262.249   2
 -12  -5  -1 3936.14 303.489   2
 -12   5   0 24048.6 782.645   2
  -5 -12   0 22660.6 702.514   2
 -12  -5   0 21360.3 708.116   1
 -12  -5   0 22450.7 781.137   2
   5  12   1 4196.30 270.421   2
 -12  -5   1 3878.92 243.370   1
 -12  -5   1 4507.64 317.930   2
 -12   5  -1 4732.57 298.878   2
 -12   5  -2 15221.3 572.742   2
 -12  -5   2 14237.9 596.282   2
   5  12   2 15109.3 571.198   2
 -12  -5   2 15550.9 531.176   1
 -12   5  -3 7436.89 367.466   2
 -12  -5   3 7273.88 408.634   2
 -12   5  -4 17600.1 624.323   2
 -12  -5   4 18104.9 691.685   2
  -5  12  -5 1955.19 220.700   1
  -6 -12  -4 12320.5 553.117   2
  -6 -12  -3 1984.01 224.303   2
  -6 -12  -2 13429.6 537.161   2
 -12  -6  -2 12187.2 556.856   2
  -6 -12  -1 2031.40 208.409   2
 -12  -6  -1 1966.95 239.739   2
  -6 -12   0 24464.3 750.872   2
 -12  -6   0 24082.3 774.698   1
 -12  -6   0 23208.3 815.068   2
 -12  -6   1 2030.60 234.641   2
 -12   6  -1 2349.06 221.451   2
 -12  -6   1 1947.12 189.217   1
 -12  -6   2 12135.5 536.798   2
 -12   6  -2 12232.3 496.387   2
 -12  -6   2 12161.7 476.738   1
 -12  -6   3 1987.65 234.119   2
 -12   6  -3 2285.67 206.917   2
 -12  -6   4 12296.6 549.951   2
  -6  12  -5 566.735 162.336   1
  -7 -12  -3 2012.82 240.737   2
  -7 -12  -2 10759.4 484.574   2
  -7 -12  -1 2748.09 245.416   2
 -12  -7  -1 2991.55 278.525   2
  -7 -12   0 24090.3 756.532   2
 -12  -7   0 22133.0 800.037   2
 -12  -7   1 2734.27 265.714   2
 -12   7  -1 3135.81 251.207   2
 -12  -7   2 10531.0 496.108   2
 -12   7  -2 10553.0 446.412   2
 -12  -7   3 2280.52 244.602   2
  -8 -12  -2 3892.18 296.607   2
  -8 -12  -1 105.055 142.466   2
 -12  -8   1 331.642 179.868   2
 -12  -8   2 4431.13 322.422   2
  -9 -12  -1 2215.69 241.959   2
 -13   0   0 16712.1 650.713   2
 -13   0  -1 5709.90 356.466   2
 -13   0   1 4994.87 348.027   2
 -13   0  -2 4838.03 325.428   2
 -13   0  -3 3047.17 275.076   2
 -13   0  -4 5128.94 347.026   2
 -13  -1  -3 322.861 161.638   2
 -13  -1  -2 2056.47 239.611   2
 -13  -1  -1 1938.90 229.720   2
 -13   1   1 1545.65 222.501   2
   1 -13   0 11136.3 459.589   1
 -13  -1   0 11647.3 526.741   2
 -13   1   0 11984.8 529.498   2
 -13   1  -1 2079.71 230.854   2
   1 -13  -1 1540.04 179.522   1
 -13   1  -2 1478.24 207.305   2
   1 -13  -2 1774.91 187.600   1
 -13   1  -3 252.341 144.554   2
   1 -13  -3 142.969 117.613   1
 -13   1  -4 1425.18 208.435   2
 -13  -2  -3 60.0224 142.559   2
 -13  -2  -2 2375.78 244.926   2
 -13  -2  -1 1100.31 187.180   2
 -13   2   1 1191.40 201.476   2
   2 -13   1 1211.61 167.055   1
   2 -13   0 12994.7 487.308   1
 -13   2   0 12566.5 546.968   2
   2 -13  -1 1155.62 157.586   1
 -13   2  -1 1281.23 191.659   2
 -13  -2   1 1089.71 204.592   2
 -13   2  -2 2177.62 225.285   2
 -13  -2   2 2230.85 242.487   2
   2 -13  -2 2099.39 189.764   1
 -13   2  -3-13.5890 132.328   2
 -13  -2   3 147.399 153.609   2
 -13   2  -4 1891.02 218.940   2
 -13   2  -5 56.1555 136.710   2
 -13  -3  -2 1256.27 202.510   2
   3 -13   1 89.3511 106.659   1
   3 -13   0 7337.63 341.836   1
 -13  -3   0 7450.78 415.184   2
 -13   3   0 7529.94 407.466   2
 -13  -3   1 120.466 139.414   2
 -13   3  -1 149.661 130.101   2
 -13   3  -2 937.709 170.209   2
 -13  -3   2 1172.75 209.214   2
 -13   3  -3 79.0351 135.058   2
 -13  -3   3 113.317 156.693   2
 -13   3  -4 1497.89 199.866   2
 -13   3  -5 162.554 141.162   2
 -13  -4  -1 240.840 153.561   2
 -13  -4   0 9260.20 463.074   2
 -13   4   0 8834.90 450.719   2
 -13   4  -1 402.284 150.562   2
 -13  -4   2 2565.40 263.083   2
 -13   4  -2 2928.08 248.532   2
 -13   4  -3 191.915 129.074   2
 -13   4  -4 4708.50 307.329   2
 -13  -5   0 13658.5 581.154   2
 -13   5   0 12934.0 556.464   2
 -13  -5   1 803.793 193.282   2
 -13   5  -1 852.795 172.984   2
 -13   5  -2 6266.90 351.638   2
 -13   5  -3 1289.31 194.397   2
  -6 -13  -3 71.6885 143.766   2
  -6 -13  -2 3445.03 273.875   2
 -13   6   0 9416.23 459.461   2
 -13   6  -1 169.906 141.129   2
 -13   6  -2 3404.71 260.733   2
 -13   7   0 6198.56 367.754   2
 -13   7  -1 489.038 149.146   2
 -14   1  -1 998.537 207.469   2
 -14   2  -1 1305.98 205.390   2
 -14   2  -2 3220.87 282.990   2
 -14   3  -1 423.041 177.125   2
 -14   3  -2 2893.80 269.883   2
 -14   4  -1 456.644 166.903   2
 -14   4  -2 4724.15 327.665   2
 -14   5  -2 7662.35 415.456   2
   0   0   0    0.00    0.00   0

TITL 211018CuSIFSIX1_2 in P-42(1)m
REM P-42(1)m (#113 in standard setting)
CELL 0.71073  11.099302  11.099302   7.991430  90.0000  90.0000  90.0000
ZERR    4.00   0.000323   0.000323   0.000400   0.0000   0.0000   0.0000
LATT -1
SYMM -x,-y, z
SYMM  y,-x,-z
SYMM -y, x,-z
SYMM -x+1/2, y+1/2,-z
SYMM  x+1/2,-y+1/2,-z
SYMM -y+1/2,-x+1/2, z
SYMM  y+1/2, x+1/2, z
SFAC C H N O
UNIT 44.00 40.00 4.00 4.00
TREF
HKLF 4
END
;
_shelx_hkl_checksum   16458

